data/pglib_opf_case3012wp_k_storage.m
%%%%%%%%%%%%%%%%%%%%%%%%%%%%%%%%%%%%%%%%%%%%%%%%%%%%%%%%%%%%%%%%%%%%%%%%%%%
%%%%                                                                  %%%%%
%%%%    IEEE PES Power Grid Library - Optimal Power Flow - v23.07     %%%%%
%%%%          (https://github.com/power-grid-lib/pglib-opf)           %%%%%
%%%%               Benchmark Group - Typical Operations               %%%%%
%%%%                         23 - July - 2023                         %%%%%
%%%%                                                                  %%%%%
%%%%%%%%%%%%%%%%%%%%%%%%%%%%%%%%%%%%%%%%%%%%%%%%%%%%%%%%%%%%%%%%%%%%%%%%%%%
%
%   Power flow data for Polish system - winter 2007-08 evening peak.
%   Please see CASEFORMAT for details on the case file format.
%
%   This case represents the Polish 400, 220 and 110 kV networks during
%   winter 2007-08 evening peak conditions.
%
%   Copyright (c) 2010 by Roman Korab <roman.korab@polsl.pl>
%   Licensed under the Creative Commons Attribution 4.0
%   International license, http://creativecommons.org/licenses/by/4.0/
%
% Modified to have additional storage capacity and increased gencost
function mpc = pglib_opf_case3012wp_k
mpc.version = '2';
mpc.baseMVA = 100.0;

%% bus data
%	bus_i	type	Pd	Qd	Gs	Bs	area	Vm	Va	baseKV	zone	Vmax	Vmin
mpc.bus = [
	1	 1	 0.0	 0.0	 0.0	 0.0	 1	    1.03000	    0.00000	 220.0	 1	    1.11000	    0.95000;
	2	 1	 0.0	 0.0	 0.0	 0.0	 1	    1.03000	    0.00000	 220.0	 1	    1.11000	    0.95000;
	3	 1	 0.0	 0.0	 0.0	 0.0	 1	    1.03000	    0.00000	 220.0	 1	    1.11000	    0.95000;
	4	 1	 0.0	 0.0	 0.0	 0.0	 1	    1.03000	    0.00000	 220.0	 1	    1.11000	    0.95000;
	5	 1	 0.0	 0.0	 0.0	 0.0	 1	    1.03000	    0.00000	 220.0	 1	    1.11000	    0.95000;
	6	 1	 0.0	 0.0	 0.0	 0.0	 1	    1.03000	    0.00000	 220.0	 1	    1.11000	    0.95000;
	7	 1	 0.0	 0.0	 0.0	 0.0	 1	    1.03000	    0.00000	 220.0	 1	    1.11000	    0.95000;
	8	 1	 0.0	 0.0	 0.0	 0.0	 1	    1.03000	    0.00000	 220.0	 1	    1.11000	    0.95000;
	9	 1	 0.0	 0.0	 0.0	 0.0	 1	    1.03000	    0.00000	 220.0	 1	    1.11000	    0.95000;
	10	 1	 0.0	 0.0	 0.0	 0.0	 1	    1.03000	    0.00000	 220.0	 1	    1.11000	    0.95000;
	11	 1	 0.0	 0.0	 0.0	 0.0	 1	    1.00000	    0.00000	 400.0	 1	    1.05000	    0.95000;
	12	 1	 0.0	 0.0	 0.0	 0.0	 1	    1.00000	    0.00000	 400.0	 1	    1.05000	    0.95000;
	13	 1	 0.0	 0.0	 0.0	 0.0	 1	    1.00000	    0.00000	 400.0	 1	    1.05000	    0.95000;
	14	 1	 0.0	 0.0	 0.0	 0.0	 1	    1.03000	    0.00000	 220.0	 1	    1.11000	    0.95000;
	15	 1	 0.0	 0.0	 0.0	 0.0	 1	    1.03000	    0.00000	 220.0	 1	    1.11000	    0.95000;
	16	 1	 0.0	 0.0	 0.0	 0.0	 1	    1.03000	    0.00000	 220.0	 1	    1.11000	    0.95000;
	17	 1	 0.0	 0.0	 0.0	 0.0	 1	    1.03000	    0.00000	 220.0	 1	    1.11000	    0.95000;
	18	 1	 0.0	 0.0	 0.0	 0.0	 1	    1.03000	    0.00000	 220.0	 1	    1.11000	    0.95000;
	19	 1	 0.0	 0.0	 0.0	 0.0	 1	    1.00000	    0.00000	 400.0	 1	    1.05000	    0.95000;
	20	 1	 0.0	 0.0	 0.0	 0.0	 1	    1.00000	    0.00000	 400.0	 1	    1.05000	    0.95000;
	21	 1	 0.0	 0.0	 0.0	 0.0	 1	    1.00000	    0.00000	 400.0	 1	    1.05000	    0.95000;
	22	 1	 0.0	 0.0	 0.0	 0.0	 1	    1.00000	    0.00000	 400.0	 1	    1.05000	    0.95000;
	23	 1	 0.0	 0.0	 0.0	 0.0	 1	    1.00000	    0.00000	 400.0	 1	    1.05000	    0.95000;
	24	 2	 10.05	 20.1	 0.0	 0.0	 1	    1.03000	    0.00000	 220.0	 1	    1.11000	    0.95000;
	25	 2	 10.05	 20.1	 0.0	 0.0	 1	    1.03000	    0.00000	 220.0	 1	    1.11000	    0.95000;
	26	 1	 0.0	 0.0	 0.0	 0.0	 1	    1.03000	    0.00000	 220.0	 1	    1.11000	    0.95000;
	27	 1	 0.0	 0.0	 0.0	 0.0	 1	    1.03000	    0.00000	 220.0	 1	    1.11000	    0.95000;
	28	 1	 0.0	 0.0	 0.0	 0.0	 1	    1.03000	    0.00000	 220.0	 1	    1.11000	    0.95000;
	29	 1	 0.0	 0.0	 0.0	 0.0	 1	    1.03000	    0.00000	 220.0	 1	    1.11000	    0.95000;
	30	 1	 0.0	 0.0	 0.0	 0.0	 1	    1.03000	    0.00000	 220.0	 1	    1.11000	    0.95000;
	31	 1	 0.0	 0.0	 0.0	 0.0	 1	    1.03000	    0.00000	 220.0	 1	    1.11000	    0.95000;
	32	 1	 0.0	 0.0	 0.0	 0.0	 1	    1.03000	    0.00000	 220.0	 1	    1.11000	    0.95000;
	33	 1	 0.0	 0.0	 0.0	 0.0	 1	    1.03000	    0.00000	 220.0	 1	    1.11000	    0.95000;
	34	 1	 0.0	 0.0	 0.0	 0.0	 1	    1.00000	    0.00000	 400.0	 1	    1.05000	    0.95000;
	35	 1	 0.0	 0.0	 0.0	 0.0	 1	    1.00000	    0.00000	 400.0	 1	    1.05000	    0.95000;
	36	 1	 0.0	 0.0	 0.0	 0.0	 1	    1.00000	    0.00000	 400.0	 1	    1.05000	    0.95000;
	37	 3	 48.68	 86.21	 0.0	 0.0	 1	    1.03000	    0.00000	 220.0	 1	    1.11000	    0.95000;
	38	 2	 54.54	 89.93	 0.0	 0.0	 1	    1.03000	    0.00000	 220.0	 1	    1.11000	    0.95000;
	39	 2	 20.1	 40.19	 0.0	 0.0	 1	    1.03000	    0.00000	 220.0	 1	    1.11000	    0.95000;
	40	 2	 60.29	 120.57	 0.0	 0.0	 1	    1.00000	    0.00000	 400.0	 1	    1.05000	    0.95000;
	41	 2	 60.29	 120.57	 0.0	 0.0	 1	    1.00000	    0.00000	 400.0	 1	    1.05000	    0.95000;
	42	 1	 0.0	 0.0	 0.0	 0.0	 1	    1.03000	    0.00000	 220.0	 1	    1.11000	    0.95000;
	43	 1	 0.0	 0.0	 0.0	 0.0	 1	    1.03000	    0.00000	 220.0	 1	    1.11000	    0.95000;
	44	 1	 0.0	 0.0	 0.0	 0.0	 1	    1.00000	    0.00000	 400.0	 1	    1.05000	    0.95000;
	45	 1	 0.0	 0.0	 0.0	 0.0	 1	    1.00000	    0.00000	 400.0	 1	    1.05000	    0.95000;
	46	 1	 0.0	 0.0	 0.0	 0.0	 1	    1.03000	    0.00000	 220.0	 1	    1.11000	    0.95000;
	47	 1	 0.0	 0.0	 0.0	 0.0	 1	    1.03000	    0.00000	 220.0	 1	    1.11000	    0.95000;
	48	 1	 0.0	 0.0	 0.0	 0.0	 1	    1.03000	    0.00000	 220.0	 1	    1.11000	    0.95000;
	49	 1	 0.0	 0.0	 0.0	 0.0	 1	    1.03000	    0.00000	 220.0	 2	    1.11000	    0.95000;
	50	 1	 0.0	 0.0	 0.0	 0.0	 1	    1.03000	    0.00000	 220.0	 2	    1.11000	    0.95000;
	51	 1	 0.0	 0.0	 0.0	 0.0	 1	    1.03000	    0.00000	 220.0	 2	    1.11000	    0.95000;
	52	 1	 0.0	 0.0	 0.0	 0.0	 1	    1.03000	    0.00000	 220.0	 2	    1.11000	    0.95000;
	53	 1	 0.0	 0.0	 0.0	 0.0	 1	    1.03000	    0.00000	 220.0	 2	    1.11000	    0.95000;
	54	 1	 3.23	 1.0	 0.0	 0.0	 1	    1.03000	    0.00000	 220.0	 2	    1.11000	    0.95000;
	55	 1	 0.0	 0.0	 0.0	 0.0	 1	    1.03000	    0.00000	 220.0	 2	    1.11000	    0.95000;
	56	 1	 0.0	 0.0	 0.0	 0.0	 1	    1.00000	    0.00000	 400.0	 2	    1.05000	    0.95000;
	57	 2	 26.12	 60.29	 0.0	 0.0	 1	    1.03000	    0.00000	 220.0	 2	    1.11000	    0.95000;
	58	 2	 54.26	 120.57	 0.0	 0.0	 1	    1.03000	    0.00000	 220.0	 2	    1.11000	    0.95000;
	59	 2	 13.06	 30.14	 0.0	 0.0	 1	    1.03000	    0.00000	 220.0	 2	    1.11000	    0.95000;
	60	 2	 26.12	 50.24	 0.0	 0.0	 1	    1.00000	    0.00000	 400.0	 2	    1.05000	    0.95000;
	61	 2	 26.12	 50.24	 0.0	 0.0	 1	    1.00000	    0.00000	 400.0	 2	    1.05000	    0.95000;
	62	 1	 0.0	 0.0	 0.0	 0.0	 1	    1.03000	    0.00000	 220.0	 2	    1.11000	    0.95000;
	63	 1	 0.0	 0.0	 0.0	 0.0	 1	    1.00000	    0.00000	 400.0	 2	    1.05000	    0.95000;
	64	 1	 0.0	 0.0	 0.0	 0.0	 1	    1.00000	    0.00000	 400.0	 2	    1.05000	    0.95000;
	65	 1	 0.0	 0.0	 0.0	 0.0	 1	    1.00000	    0.00000	 400.0	 2	    1.05000	    0.95000;
	66	 1	 0.0	 0.0	 0.0	 0.0	 1	    1.03000	    0.00000	 220.0	 2	    1.11000	    0.95000;
	67	 1	 0.0	 0.0	 0.0	 0.0	 1	    1.03000	    0.00000	 220.0	 2	    1.11000	    0.95000;
	68	 1	 0.0	 0.0	 0.0	 0.0	 1	    1.00000	    0.00000	 400.0	 2	    1.05000	    0.95000;
	69	 1	 0.0	 0.0	 0.0	 0.0	 1	    1.00000	    0.00000	 400.0	 2	    1.05000	    0.95000;
	70	 2	 13.06	 30.14	 0.0	 0.0	 1	    1.03000	    0.00000	 220.0	 2	    1.11000	    0.95000;
	71	 2	 13.06	 30.14	 0.0	 0.0	 1	    1.03000	    0.00000	 220.0	 2	    1.11000	    0.95000;
	72	 2	 13.06	 30.14	 0.0	 0.0	 1	    1.00000	    0.00000	 400.0	 2	    1.05000	    0.95000;
	73	 2	 26.12	 60.29	 0.0	 0.0	 1	    1.00000	    0.00000	 400.0	 2	    1.05000	    0.95000;
	74	 2	 149.71	 60.29	 0.0	 0.0	 1	    1.03000	    0.00000	 220.0	 2	    1.11000	    0.95000;
	75	 1	 29.14	 10.05	 0.0	 0.0	 1	    1.03000	    0.00000	 220.0	 2	    1.11000	    0.95000;
	76	 1	 0.0	 0.0	 0.0	 0.0	 1	    1.03000	    0.00000	 220.0	 2	    1.11000	    0.95000;
	77	 1	 0.0	 0.0	 0.0	 0.0	 1	    1.03000	    0.00000	 220.0	 2	    1.11000	    0.95000;
	78	 1	 0.0	 0.0	 0.0	 0.0	 1	    1.03000	    0.00000	 220.0	 2	    1.11000	    0.95000;
	79	 1	 0.0	 0.0	 0.0	 0.0	 1	    1.03000	    0.00000	 220.0	 2	    1.11000	    0.95000;
	80	 1	 0.0	 0.0	 0.0	 0.0	 1	    1.00000	    0.00000	 400.0	 2	    1.05000	    0.95000;
	81	 1	 0.0	 0.0	 0.0	 0.0	 1	    1.00000	    0.00000	 400.0	 2	    1.05000	    0.95000;
	82	 1	 0.0	 0.0	 0.0	 0.0	 1	    1.03000	    0.00000	 220.0	 2	    1.11000	    0.95000;
	83	 1	 0.0	 0.0	 0.0	 0.0	 1	    1.03000	    0.00000	 220.0	 2	    1.11000	    0.95000;
	84	 1	 0.0	 0.0	 0.0	 0.0	 1	    1.03000	    0.00000	 220.0	 2	    1.11000	    0.95000;
	85	 1	 0.0	 0.0	 0.0	 0.0	 1	    1.03000	    0.00000	 220.0	 3	    1.11000	    0.95000;
	86	 1	 9.35	 0.0	 0.0	 0.0	 1	    1.03000	    0.00000	 220.0	 3	    1.11000	    0.95000;
	87	 1	 8.18	 0.0	 0.0	 0.0	 1	    1.03000	    0.00000	 220.0	 3	    1.11000	    0.95000;
	88	 1	 0.0	 0.0	 0.0	 0.0	 1	    1.03000	    0.00000	 220.0	 3	    1.11000	    0.95000;
	89	 1	 0.0	 0.0	 0.0	 0.0	 1	    1.03000	    0.00000	 220.0	 3	    1.11000	    0.95000;
	90	 1	 0.0	 0.0	 0.0	 0.0	 1	    1.03000	    0.00000	 220.0	 3	    1.11000	    0.95000;
	91	 1	 0.0	 0.0	 0.0	 0.0	 1	    1.03000	    0.00000	 220.0	 3	    1.11000	    0.95000;
	92	 1	 0.0	 0.0	 0.0	 0.0	 1	    1.03000	    0.00000	 220.0	 3	    1.11000	    0.95000;
	93	 1	 0.0	 0.0	 0.0	 0.0	 1	    1.03000	    0.00000	 220.0	 3	    1.11000	    0.95000;
	94	 2	 28.13	 70.33	 0.0	 0.0	 1	    1.03000	    0.00000	 220.0	 3	    1.11000	    0.95000;
	95	 2	 42.2	 103.49	 0.0	 0.0	 1	    1.03000	    0.00000	 220.0	 3	    1.11000	    0.95000;
	96	 1	 7.72	 -24.99	 0.0	 0.0	 1	    1.03000	    0.00000	 220.0	 3	    1.11000	    0.95000;
	97	 1	 0.0	 0.0	 0.0	 0.0	 1	    1.03000	    0.00000	 220.0	 3	    1.11000	    0.95000;
	98	 2	 32.15	 142.68	 0.0	 0.0	 1	    1.00000	    0.00000	 400.0	 3	    1.05000	    0.95000;
	99	 1	 0.0	 0.0	 0.0	 0.0	 1	    1.00000	    0.00000	 400.0	 3	    1.05000	    0.95000;
	100	 1	 0.0	 0.0	 0.0	 0.0	 1	    1.03000	    0.00000	 220.0	 3	    1.11000	    0.95000;
	101	 1	 0.0	 0.0	 0.0	 0.0	 1	    1.03000	    0.00000	 220.0	 3	    1.11000	    0.95000;
	102	 1	 0.0	 0.0	 0.0	 0.0	 1	    1.03000	    0.00000	 220.0	 3	    1.11000	    0.95000;
	103	 1	 45.11	 7.94	 0.0	 0.0	 1	    1.03000	    0.00000	 220.0	 3	    1.11000	    0.95000;
	104	 1	 0.0	 0.0	 0.0	 0.0	 1	    1.03000	    0.00000	 220.0	 3	    1.11000	    0.95000;
	105	 1	 0.0	 0.0	 0.0	 0.0	 1	    1.03000	    0.00000	 220.0	 3	    1.11000	    0.95000;
	106	 1	 0.0	 0.0	 0.0	 0.0	 1	    1.03000	    0.00000	 220.0	 3	    1.11000	    0.95000;
	107	 1	 0.0	 0.0	 0.0	 0.0	 1	    1.03000	    0.00000	 220.0	 3	    1.11000	    0.95000;
	108	 1	 0.0	 0.0	 0.0	 0.0	 1	    1.03000	    0.00000	 220.0	 3	    1.11000	    0.95000;
	109	 1	 0.0	 0.0	 0.0	 0.0	 1	    1.00000	    0.00000	 400.0	 3	    1.05000	    0.95000;
	110	 1	 0.0	 0.0	 0.0	 0.0	 1	    1.00000	    0.00000	 400.0	 3	    1.05000	    0.95000;
	111	 1	 0.0	 0.0	 0.0	 0.0	 1	    1.03000	    0.00000	 220.0	 3	    1.11000	    0.95000;
	112	 1	 0.0	 0.0	 0.0	 0.0	 1	    1.03000	    0.00000	 220.0	 3	    1.11000	    0.95000;
	113	 1	 0.0	 0.0	 0.0	 0.0	 1	    1.03000	    0.00000	 220.0	 3	    1.11000	    0.95000;
	114	 1	 0.0	 0.0	 0.0	 0.0	 1	    1.03000	    0.00000	 220.0	 3	    1.11000	    0.95000;
	115	 2	 29.36	 18.51	 0.0	 0.0	 1	    1.03000	    0.00000	 220.0	 3	    1.11000	    0.95000;
	116	 1	 0.0	 0.0	 0.0	 0.0	 1	    1.03000	    0.00000	 220.0	 3	    1.11000	    0.95000;
	117	 1	 0.0	 0.0	 0.0	 0.0	 1	    1.03000	    0.00000	 220.0	 3	    1.11000	    0.95000;
	118	 1	 0.0	 0.0	 0.0	 0.0	 1	    1.03000	    0.00000	 220.0	 3	    1.11000	    0.95000;
	119	 1	 0.0	 0.0	 0.0	 0.0	 1	    1.03000	    0.00000	 220.0	 3	    1.11000	    0.95000;
	120	 1	 0.0	 0.0	 0.0	 0.0	 1	    1.03000	    0.00000	 220.0	 3	    1.11000	    0.95000;
	121	 2	 0.0	 0.0	 0.0	 0.0	 1	    1.03000	    0.00000	 220.0	 3	    1.11000	    0.95000;
	122	 2	 10.05	 44.21	 0.0	 0.0	 1	    1.03000	    0.00000	 220.0	 3	    1.11000	    0.95000;
	123	 2	 7.03	 18.09	 0.0	 0.0	 1	    1.03000	    0.00000	 220.0	 3	    1.11000	    0.95000;
	124	 2	 8.04	 21.1	 0.0	 0.0	 1	    1.03000	    0.00000	 220.0	 3	    1.11000	    0.95000;
	125	 1	 0.0	 0.0	 0.0	 0.0	 1	    1.03000	    0.00000	 220.0	 3	    1.11000	    0.95000;
	126	 1	 71.54	 7.94	 0.0	 0.0	 1	    1.03000	    0.00000	 220.0	 3	    1.11000	    0.95000;
	127	 1	 0.0	 0.0	 0.0	 0.0	 1	    1.03000	    0.00000	 220.0	 3	    1.11000	    0.95000;
	128	 1	 0.0	 0.0	 0.0	 0.0	 1	    1.03000	    0.00000	 220.0	 3	    1.11000	    0.95000;
	129	 1	 0.0	 0.0	 0.0	 0.0	 1	    1.03000	    0.00000	 220.0	 3	    1.11000	    0.95000;
	130	 1	 0.0	 0.0	 0.0	 0.0	 1	    1.03000	    0.00000	 220.0	 3	    1.11000	    0.95000;
	131	 1	 0.0	 0.0	 0.0	 0.0	 1	    1.03000	    0.00000	 220.0	 3	    1.11000	    0.95000;
	132	 1	 0.0	 0.0	 0.0	 0.0	 1	    1.00000	    0.00000	 400.0	 3	    1.05000	    0.95000;
	133	 1	 0.0	 0.0	 0.0	 0.0	 1	    1.00000	    0.00000	 400.0	 3	    1.05000	    0.95000;
	134	 2	 0.0	 0.0	 0.0	 0.0	 1	    1.03000	    0.00000	 220.0	 3	    1.11000	    0.95000;
	135	 2	 9.04	 20.1	 0.0	 0.0	 1	    1.03000	    0.00000	 220.0	 3	    1.11000	    0.95000;
	136	 2	 6.03	 15.07	 0.0	 0.0	 1	    1.03000	    0.00000	 220.0	 3	    1.11000	    0.95000;
	137	 1	 0.0	 0.0	 0.0	 0.0	 1	    1.03000	    0.00000	 220.0	 3	    1.11000	    0.95000;
	138	 1	 0.0	 0.0	 0.0	 0.0	 1	    1.00000	    0.00000	 400.0	 3	    1.05000	    0.95000;
	139	 1	 0.0	 0.0	 0.0	 0.0	 1	    1.00000	    0.00000	 400.0	 3	    1.05000	    0.95000;
	140	 1	 0.0	 0.0	 0.0	 0.0	 1	    1.00000	    0.00000	 400.0	 3	    1.05000	    0.95000;
	141	 1	 0.0	 0.0	 0.0	 0.0	 1	    1.00000	    0.00000	 400.0	 3	    1.05000	    0.95000;
	142	 1	 0.0	 0.0	 0.0	 0.0	 1	    1.03000	    0.00000	 220.0	 3	    1.11000	    0.95000;
	143	 1	 0.0	 0.0	 0.0	 0.0	 1	    1.03000	    0.00000	 220.0	 3	    1.11000	    0.95000;
	144	 2	 18.34	 15.86	 0.0	 0.0	 1	    1.03000	    0.00000	 220.0	 3	    1.11000	    0.95000;
	145	 2	 41.01	 43.07	 0.0	 0.0	 1	    1.03000	    0.00000	 220.0	 3	    1.11000	    0.95000;
	146	 2	 28.13	 66.31	 0.0	 0.0	 1	    1.00000	    0.00000	 400.0	 3	    1.05000	    0.95000;
	147	 1	 0.0	 0.0	 0.0	 0.0	 1	    1.00000	    0.00000	 400.0	 3	    1.05000	    0.95000;
	148	 1	 0.0	 0.0	 0.0	 0.0	 1	    1.03000	    0.00000	 220.0	 3	    1.11000	    0.95000;
	149	 1	 0.0	 0.0	 0.0	 0.0	 1	    1.03000	    0.00000	 220.0	 3	    1.11000	    0.95000;
	150	 1	 0.0	 0.0	 0.0	 0.0	 1	    1.03000	    0.00000	 220.0	 3	    1.11000	    0.95000;
	151	 1	 0.0	 0.0	 0.0	 0.0	 1	    1.03000	    0.00000	 220.0	 3	    1.11000	    0.95000;
	152	 2	 0.0	 0.0	 0.0	 0.0	 1	    1.03000	    0.00000	 220.0	 3	    1.11000	    0.95000;
	153	 2	 0.0	 0.0	 0.0	 0.0	 1	    1.03000	    0.00000	 220.0	 3	    1.11000	    0.95000;
	154	 2	 7.84	 20.1	 0.0	 0.0	 1	    1.03000	    0.00000	 220.0	 4	    1.11000	    0.95000;
	155	 2	 8.04	 20.1	 0.0	 0.0	 1	    1.03000	    0.00000	 220.0	 4	    1.11000	    0.95000;
	156	 1	 0.0	 0.0	 0.0	 0.0	 1	    1.03000	    0.00000	 220.0	 4	    1.11000	    0.95000;
	157	 1	 0.0	 0.0	 0.0	 0.0	 1	    1.03000	    0.00000	 220.0	 4	    1.11000	    0.95000;
	158	 1	 0.0	 0.0	 0.0	 0.0	 1	    1.03000	    0.00000	 220.0	 4	    1.11000	    0.95000;
	159	 1	 0.0	 0.0	 0.0	 0.0	 1	    1.03000	    0.00000	 220.0	 4	    1.11000	    0.95000;
	160	 1	 0.0	 0.0	 0.0	 0.0	 1	    1.03000	    0.00000	 220.0	 4	    1.11000	    0.95000;
	161	 1	 0.0	 0.0	 0.0	 0.0	 1	    1.00000	    0.00000	 400.0	 4	    1.05000	    0.95000;
	162	 1	 0.0	 0.0	 0.0	 0.0	 1	    1.00000	    0.00000	 400.0	 4	    1.05000	    0.95000;
	163	 1	 0.0	 0.0	 0.0	 0.0	 1	    1.03000	    0.00000	 220.0	 4	    1.11000	    0.95000;
	164	 1	 0.0	 0.0	 0.0	 0.0	 1	    1.03000	    0.00000	 220.0	 4	    1.11000	    0.95000;
	165	 1	 0.0	 0.0	 0.0	 0.0	 1	    1.03000	    0.00000	 220.0	 4	    1.11000	    0.95000;
	166	 1	 0.0	 0.0	 0.0	 0.0	 1	    1.03000	    0.00000	 220.0	 4	    1.11000	    0.95000;
	167	 1	 0.0	 0.0	 0.0	 0.0	 1	    1.03000	    0.00000	 220.0	 4	    1.11000	    0.95000;
	168	 1	 0.0	 0.0	 0.0	 0.0	 1	    1.03000	    0.00000	 220.0	 4	    1.11000	    0.95000;
	169	 2	 0.0	 0.0	 0.0	 0.0	 1	    1.03000	    0.00000	 220.0	 4	    1.11000	    0.95000;
	170	 2	 0.0	 0.0	 0.0	 0.0	 1	    1.03000	    0.00000	 220.0	 4	    1.11000	    0.95000;
	171	 1	 0.0	 0.0	 0.0	 0.0	 1	    1.03000	    0.00000	 220.0	 4	    1.11000	    0.95000;
	172	 2	 12.06	 30.14	 0.0	 0.0	 1	    1.03000	    0.00000	 220.0	 4	    1.11000	    0.95000;
	173	 2	 9.39	 2.43	 0.0	 0.0	 1	    1.03000	    0.00000	 220.0	 4	    1.11000	    0.95000;
	174	 2	 12.06	 30.14	 0.0	 0.0	 1	    1.00000	    0.00000	 400.0	 4	    1.05000	    0.95000;
	175	 2	 24.11	 60.29	 0.0	 0.0	 1	    1.00000	    0.00000	 400.0	 4	    1.05000	    0.95000;
	176	 1	 0.0	 0.0	 0.0	 0.0	 1	    1.03000	    0.00000	 220.0	 4	    1.11000	    0.95000;
	177	 1	 0.0	 0.0	 0.0	 0.0	 1	    1.03000	    0.00000	 220.0	 4	    1.11000	    0.95000;
	178	 1	 0.0	 0.0	 0.0	 0.0	 1	    1.03000	    0.00000	 220.0	 4	    1.11000	    0.95000;
	179	 1	 0.0	 0.0	 0.0	 0.0	 1	    1.03000	    0.00000	 220.0	 4	    1.11000	    0.95000;
	180	 2	 26.12	 64.3	 0.0	 0.0	 1	    1.03000	    0.00000	 220.0	 4	    1.11000	    0.95000;
	181	 2	 26.12	 64.3	 0.0	 0.0	 1	    1.03000	    0.00000	 220.0	 4	    1.11000	    0.95000;
	182	 2	 26.12	 64.51	 0.0	 0.0	 1	    1.03000	    0.00000	 220.0	 4	    1.11000	    0.95000;
	183	 2	 26.12	 64.51	 0.0	 0.0	 1	    1.00000	    0.00000	 400.0	 4	    1.05000	    0.95000;
	184	 1	 0.0	 0.0	 0.0	 0.0	 1	    1.00000	    0.00000	 400.0	 4	    1.05000	    0.95000;
	185	 1	 0.0	 0.0	 0.0	 0.0	 1	    1.03000	    0.00000	 220.0	 4	    1.11000	    0.95000;
	186	 1	 0.0	 0.0	 0.0	 0.0	 1	    1.03000	    0.00000	 220.0	 4	    1.11000	    0.95000;
	187	 1	 0.0	 0.0	 0.0	 0.0	 1	    1.00000	    0.00000	 400.0	 4	    1.05000	    0.95000;
	188	 1	 0.0	 0.0	 0.0	 0.0	 1	    1.00000	    0.00000	 400.0	 4	    1.05000	    0.95000;
	189	 1	 0.0	 0.0	 0.0	 0.0	 1	    1.00000	    0.00000	 400.0	 4	    1.05000	    0.95000;
	190	 1	 0.0	 0.0	 0.0	 0.0	 1	    1.00000	    0.00000	 400.0	 4	    1.05000	    0.95000;
	191	 2	 12.06	 30.14	 0.0	 0.0	 1	    1.03000	    0.00000	 220.0	 4	    1.11000	    0.95000;
	192	 2	 14.66	 30.65	 0.0	 0.0	 1	    1.03000	    0.00000	 220.0	 4	    1.11000	    0.95000;
	193	 2	 38.18	 64.3	 0.0	 0.0	 1	    1.00000	    0.00000	 400.0	 4	    1.05000	    0.95000;
	194	 1	 0.0	 0.0	 0.0	 0.0	 1	    1.03000	    0.00000	 220.0	 4	    1.11000	    0.95000;
	195	 1	 0.0	 0.0	 0.0	 0.0	 1	    1.03000	    0.00000	 220.0	 4	    1.11000	    0.95000;
	196	 1	 0.0	 0.0	 0.0	 0.0	 1	    1.03000	    0.00000	 220.0	 4	    1.11000	    0.95000;
	197	 1	 0.0	 0.0	 0.0	 0.0	 1	    1.03000	    0.00000	 220.0	 4	    1.11000	    0.95000;
	198	 1	 0.0	 0.0	 0.0	 0.0	 1	    1.03000	    0.00000	 220.0	 4	    1.11000	    0.95000;
	199	 1	 0.0	 0.0	 0.0	 0.0	 1	    1.03000	    0.00000	 220.0	 4	    1.11000	    0.95000;
	200	 1	 0.0	 0.0	 0.0	 0.0	 1	    1.00000	    0.00000	 400.0	 4	    1.05000	    0.95000;
...
];

%% generator data
%	bus	Pg	Qg	Qmax	Qmin	Vg	mBase	status	Pmax	Pmin
mpc.gen = [
	24	 165.5	 45.5	 140.0	 -49.0	 1.03	 235.3	 1	 221.0	 110.0;
	25	 167.5	 51.0	 124.0	 -22.0	 1.03	 235.3	 1	 200.0	 135.0;
	37	 305.0	 85.5	 190.0	 -19.0	 1.03	 426.0	 1	 370.0	 240.0;
	37	 305.0	 85.5	 190.0	 -19.0	 1.03	 426.0	 1	 370.0	 240.0;
	38	 305.0	 85.5	 190.0	 -19.0	 1.03	 426.0	 1	 370.0	 240.0;
	38	 305.0	 85.5	 190.0	 -19.0	 1.03	 426.0	 1	 370.0	 240.0;
	39	 305.0	 85.5	 190.0	 -19.0	 1.03	 426.0	 1	 370.0	 240.0;
	40	 305.0	 85.5	 190.0	 -19.0	 1.0	 426.0	 1	 370.0	 240.0;
	40	 305.0	 85.5	 190.0	 -19.0	 1.0	 426.0	 1	 370.0	 240.0;
	40	 305.0	 85.5	 190.0	 -19.0	 1.0	 426.0	 1	 370.0	 240.0;
	41	 305.0	 85.5	 190.0	 -19.0	 1.0	 426.0	 1	 370.0	 240.0;
	41	 305.0	 85.5	 190.0	 -19.0	 1.0	 426.0	 1	 370.0	 240.0;
	41	 305.0	 85.5	 190.0	 -19.0	 1.0	 426.0	 1	 370.0	 240.0;
	57	 162.5	 59.5	 152.0	 -33.0	 1.03	 235.0	 1	 215.0	 110.0;
	57	 172.5	 59.5	 152.0	 -33.0	 1.03	 235.0	 1	 220.0	 125.0;
	58	 175.0	 58.0	 149.0	 -33.0	 1.03	 235.0	 1	 225.0	 125.0;
	58	 0.0	 0.0	 149.0	 -33.0	 1.03	 235.0	 0	 225.0	 120.0;
	58	 167.5	 58.0	 149.0	 -33.0	 1.03	 235.0	 1	 225.0	 110.0;
	59	 167.5	 58.0	 149.0	 -33.0	 1.03	 235.0	 1	 225.0	 110.0;
	60	 395.0	 158.0	 363.0	 -47.0	 1.0	 588.0	 1	 535.0	 255.0;
	61	 405.0	 124.0	 348.0	 -100.0	 1.0	 588.0	 1	 560.0	 250.0;
	70	 177.0	 47.0	 105.0	 -11.0	 1.03	 235.0	 1	 225.0	 129.0;
	71	 177.0	 47.0	 105.0	 -11.0	 1.03	 235.0	 1	 225.0	 129.0;
	71	 0.0	 0.0	 99.0	 -10.0	 1.03	 235.0	 0	 225.0	 129.0;
	72	 0.0	 0.0	 105.0	 -11.0	 1.0	 235.0	 0	 225.0	 129.0;
	72	 177.0	 47.0	 105.0	 -11.0	 1.0	 235.0	 1	 225.0	 129.0;
	73	 177.0	 44.5	 99.0	 -10.0	 1.0	 235.0	 1	 225.0	 129.0;
	73	 177.0	 47.0	 105.0	 -11.0	 1.0	 235.0	 1	 225.0	 129.0;
	74	 56.0	 30.0	 60.0	 0.0	 1.03	 120.0	 1	 112.0	 0.0;
	94	 172.5	 62.5	 131.0	 -6.0	 1.03	 270.6	 1	 220.0	 125.0;
	94	 182.5	 62.5	 131.0	 -6.0	 1.03	 270.6	 1	 225.0	 140.0;
	95	 177.5	 62.5	 131.0	 -6.0	 1.03	 270.6	 1	 225.0	 130.0;
	95	 175.0	 62.5	 131.0	 -6.0	 1.03	 270.6	 1	 225.0	 125.0;
	95	 177.5	 62.5	 131.0	 -6.0	 1.03	 270.6	 1	 225.0	 130.0;
	98	 301.5	 91.0	 213.0	 -31.0	 1.0	 426.0	 1	 383.0	 220.0;
	98	 300.0	 44.0	 119.0	 -31.0	 1.0	 435.3	 1	 380.0	 220.0;
	115	 6.0	 0.0	 0.0	 0.0	 1.03	 12.0	 1	 12.0	 0.0;
	115	 3.0	 0.0	 0.0	 0.0	 1.03	 6.0	 1	 6.0	 0.0;
	121	 0.0	 0.0	 120.0	 -10.0	 1.03	 270.6	 0	 225.0	 120.0;
	122	 172.5	 55.0	 120.0	 -10.0	 1.03	 270.6	 1	 225.0	 120.0;
	123	 95.0	 36.0	 73.0	 -1.0	 1.03	 150.0	 1	 120.0	 70.0;
	124	 95.0	 36.0	 73.0	 -1.0	 1.03	 150.0	 1	 120.0	 70.0;
	134	 0.0	 0.0	 80.0	 0.0	 1.03	 150.0	 0	 120.0	 70.0;
	135	 95.0	 40.0	 80.0	 0.0	 1.03	 150.0	 1	 120.0	 70.0;
	136	 95.0	 15.5	 31.0	 0.0	 1.03	 117.5	 1	 110.0	 80.0;
	144	 175.0	 50.0	 135.0	 -35.0	 1.03	 270.6	 1	 215.0	 135.0;
	145	 175.0	 50.0	 135.0	 -35.0	 1.03	 270.6	 1	 215.0	 135.0;
	145	 180.0	 52.5	 140.0	 -35.0	 1.03	 270.6	 1	 225.0	 135.0;
	146	 180.0	 52.0	 140.0	 -36.0	 1.0	 270.6	 1	 225.0	 135.0;
	146	 177.5	 50.5	 137.0	 -36.0	 1.0	 270.6	 1	 220.0	 135.0;
	152	 0.0	 0.0	 72.0	 -29.0	 1.03	 150.0	 0	 135.0	 -135.0;
	152	 0.0	 0.0	 72.0	 -29.0	 1.03	 150.0	 0	 135.0	 -135.0;
	153	 0.0	 0.0	 72.0	 -29.0	 1.03	 150.0	 0	 135.0	 -135.0;
	153	 0.0	 0.0	 72.0	 -29.0	 1.03	 150.0	 0	 135.0	 -135.0;
	154	 107.0	 35.0	 85.0	 -15.0	 1.03	 150.0	 1	 120.0	 94.0;
	155	 107.0	 35.0	 85.0	 -15.0	 1.03	 150.0	 1	 120.0	 94.0;
	155	 0.0	 0.0	 85.0	 -15.0	 1.03	 150.0	 0	 120.0	 94.0;
	169	 0.0	 0.0	 25.0	 0.0	 1.03	 51.4	 0	 50.0	 40.0;
	170	 0.0	 0.0	 90.0	 -15.0	 1.03	 150.0	 0	 120.0	 80.0;
	170	 0.0	 0.0	 25.0	 0.0	 1.03	 51.4	 0	 50.0	 45.0;
	172	 166.0	 44.0	 119.0	 -31.0	 1.03	 252.4	 1	 232.0	 100.0;
	172	 0.0	 0.0	 111.0	 -21.0	 1.03	 237.5	 0	 205.0	 135.0;
	173	 0.0	 0.0	 111.0	 -21.0	 1.03	 237.5	 0	 205.0	 135.0;
	173	 0.0	 0.0	 102.0	 -15.0	 1.03	 252.4	 0	 222.0	 90.0;
	174	 156.0	 43.5	 102.0	 -15.0	 1.0	 252.4	 1	 222.0	 90.0;
	175	 156.0	 43.5	 102.0	 -15.0	 1.0	 252.4	 1	 222.0	 90.0;
	175	 166.0	 41.5	 93.0	 -10.0	 1.0	 252.4	 1	 232.0	 100.0;
	180	 182.5	 46.0	 127.0	 -35.0	 1.03	 287.3	 1	 261.0	 104.0;
	180	 182.5	 46.0	 127.0	 -35.0	 1.03	 287.3	 1	 261.0	 104.0;
	181	 163.0	 43.0	 103.0	 -17.0	 1.03	 238.4	 1	 206.0	 120.0;
	181	 182.5	 46.0	 127.0	 -35.0	 1.03	 287.3	 1	 261.0	 104.0;
	182	 164.5	 53.5	 145.0	 -38.0	 1.03	 263.9	 1	 235.0	 94.0;
	182	 164.5	 53.5	 145.0	 -38.0	 1.03	 263.9	 1	 235.0	 94.0;
	183	 163.0	 43.0	 103.0	 -17.0	 1.0	 238.4	 1	 206.0	 120.0;
	183	 163.0	 43.0	 103.0	 -17.0	 1.0	 238.4	 1	 206.0	 120.0;
	191	 175.0	 40.5	 104.0	 -23.0	 1.03	 233.2	 1	 200.0	 150.0;
	192	 175.0	 40.5	 104.0	 -23.0	 1.03	 233.2	 1	 200.0	 150.0;
	192	 0.0	 0.0	 104.0	 -23.0	 1.03	 233.2	 0	 200.0	 145.0;
	192	 0.0	 0.0	 104.0	 -23.0	 1.03	 233.2	 0	 200.0	 145.0;
	193	 336.0	 17.5	 294.0	 -259.0	 1.0	 464.0	 1	 464.0	 208.0;
	208	 132.0	 50.0	 100.0	 0.0	 1.03	 218.3	 1	 188.0	 76.0;
	240	 -10.5	 21.5	 105.0	 -62.0	 1.0	 209.0	 1	 179.0	 -200.0;
	240	 -10.5	 21.5	 105.0	 -62.0	 1.0	 209.0	 1	 179.0	 -200.0;
	240	 0.0	 0.0	 160.0	 -100.0	 1.0	 209.0	 0	 179.0	 -200.0;
	241	 -10.5	 30.0	 160.0	 -100.0	 1.0	 209.0	 1	 179.0	 -200.0;
	244	 166.25	 50.0	 100.0	 0.0	 1.03	 177.1	 1	 220.0	 112.5;
	254	 39.0	 10.0	 20.0	 0.0	 1.035	 78.8	 1	 55.0	 23.0;
	254	 37.5	 10.0	 20.0	 0.0	 1.035	 68.8	 1	 50.0	 25.0;
	254	 37.5	 10.0	 20.0	 0.0	 1.035	 68.8	 1	 50.0	 25.0;
	254	 15.0	 10.0	 20.0	 0.0	 1.035	 27.6	 1	 23.0	 7.0;
	267	 1.275	 0.5	 1.0	 0.0	 1.035	 0.7	 1	 2.1	 0.45;
	268	 1.275	 0.5	 1.0	 0.0	 1.035	 0.7	 1	 2.1	 0.45;
	278	 0.0	 0.0	 5.0	 0.0	 1.035	 10.3	 0	 7.15	 5.85;
	279	 0.0	 0.0	 5.0	 0.0	 1.035	 10.3	 0	 7.15	 5.85;
	295	 3.0	 1.875	 3.75	 0.0	 1.035	 5.0	 1	 5.0	 1.0;
	295	 3.0	 1.875	 3.75	 0.0	 1.035	 5.0	 1	 5.0	 1.0;
	295	 3.0	 1.875	 3.75	 0.0	 1.035	 5.0	 1	 5.0	 1.0;
	295	 3.0	 1.875	 3.75	 0.0	 1.035	 5.0	 1	 5.0	 1.0;
	310	 305.0	 85.5	 190.0	 -19.0	 1.035	 426.0	 1	 370.0	 240.0;
	316	 0.0	 0.0	 2.0	 0.0	 1.035	 4.0	 0	 5.73	 1.0;
	316	 0.0	 0.0	 2.0	 0.0	 1.035	 4.0	 0	 5.73	 1.0;
	376	 6.0	 2.5	 5.0	 0.0	 1.035	 8.4	 1	 6.6	 5.4;
	379	 0.6	 0.5	 1.0	 0.0	 1.035	 0.9	 1	 0.9	 0.3;
	379	 0.6	 0.5	 1.0	 0.0	 1.035	 0.9	 1	 0.9	 0.3;
	379	 0.6	 0.5	 1.0	 0.0	 1.035	 0.9	 1	 0.9	 0.3;
	383	 19.0	 3.5	 7.0	 0.0	 1.035	 31.3	 1	 27.0	 11.0;
	383	 20.5	 3.5	 7.0	 0.0	 1.035	 39.0	 1	 30.0	 11.0;
	383	 19.5	 3.0	 6.0	 0.0	 1.035	 40.6	 1	 30.0	 9.0;
	384	 37.5	 7.5	 15.0	 0.0	 1.035	 68.8	 1	 55.0	 20.0;
	384	 37.5	 7.5	 15.0	 0.0	 1.035	 68.8	 1	 55.0	 20.0;
	385	 25.0	 7.5	 15.0	 0.0	 1.035	 48.5	 1	 40.0	 10.0;
	385	 37.5	 7.5	 15.0	 0.0	 1.035	 68.8	 1	 55.0	 20.0;
	387	 37.5	 10.0	 20.0	 0.0	 1.035	 68.8	 1	 50.0	 25.0;
	387	 77.5	 10.0	 20.0	 0.0	 1.035	 147.0	 1	 100.0	 55.0;
	388	 42.5	 20.0	 40.0	 0.0	 1.035	 68.8	 1	 60.0	 25.0;
	399	 2.375	 1.5	 3.0	 0.0	 1.035	 3.8	 1	 2.75	 2.0;
	433	 1.5	 0.5	 1.0	 0.0	 1.035	 1.9	 1	 1.65	 1.35;
	455	 33.25	 17.5	 57.0	 -22.0	 1.035	 68.8	 1	 51.5	 15.0;
	456	 35.0	 17.5	 57.0	 -22.0	 1.035	 68.8	 1	 55.0	 15.0;
	457	 35.0	 17.5	 57.0	 -22.0	 1.035	 68.8	 1	 55.0	 15.0;
	457	 40.0	 21.5	 71.0	 -28.0	 1.035	 87.5	 1	 77.0	 3.0;
	458	 35.0	 17.5	 57.0	 -22.0	 1.035	 68.8	 1	 55.0	 15.0;
	458	 35.0	 17.5	 57.0	 -22.0	 1.035	 68.8	 1	 55.0	 15.0;
	478	 173.0	 45.0	 137.0	 -47.0	 1.035	 235.3	 1	 226.0	 120.0;
	478	 18.5	 6.0	 12.0	 0.0	 1.035	 48.5	 1	 25.0	 12.0;
	479	 13.5	 6.0	 12.0	 0.0	 1.035	 48.5	 1	 17.0	 10.0;
	482	 4.0	 1.0	 2.0	 0.0	 1.035	 5.6	 1	 4.4	 3.6;
	500	 0.17	 0.1	 0.2	 0.0	 1.035	 0.4	 1	 0.34	 0.0;
	522	 4.8	 2.0	 4.0	 0.0	 1.035	 8.4	 1	 6.6	 3.0;
	527	 3.1	 1.5	 3.0	 0.0	 1.035	 4.6	 1	 3.41	 2.79;
	532	 3.75	 4.25	 4.7	 3.8	 1.035	 6.5	 1	 6.5	 1.0;
	532	 3.75	 4.25	 4.7	 3.8	 1.035	 6.5	 1	 6.5	 1.0;
	532	 3.75	 4.25	 4.7	 3.8	 1.035	 6.5	 1	 6.5	 1.0;
	543	 2.7	 1.0	 2.0	 0.0	 1.035	 4.1	 1	 2.97	 2.43;
	572	 0.0	 0.0	 2.0	 0.0	 1.035	 4.6	 0	 3.52	 2.88;
	597	 1.35	 0.35	 0.7	 0.0	 1.035	 1.9	 1	 1.7	 1.0;
	597	 0.0	 0.0	 0.7	 0.0	 1.035	 1.9	 0	 1.7	 1.0;
	603	 3.7	 1.5	 3.0	 0.0	 1.035	 5.6	 1	 4.4	 3.0;
	670	 44.5	 18.5	 35.0	 2.0	 1.035	 62.5	 1	 52.0	 37.0;
	670	 20.0	 12.5	 23.0	 2.0	 1.035	 37.5	 1	 30.0	 10.0;
	670	 77.5	 45.5	 85.0	 6.0	 1.035	 150.0	 1	 105.0	 50.0;
	670	 77.5	 45.5	 85.0	 6.0	 1.035	 150.0	 1	 105.0	 50.0;
	671	 20.0	 12.5	 23.0	 2.0	 1.035	 37.5	 1	 30.0	 10.0;
	671	 20.0	 12.5	 23.0	 2.0	 1.035	 37.5	 1	 30.0	 10.0;
	671	 20.0	 13.5	 25.0	 2.0	 1.035	 37.5	 1	 30.0	 10.0;
	671	 96.5	 45.5	 85.0	 6.0	 1.035	 150.0	 1	 125.0	 68.0;
	671	 77.5	 45.5	 85.0	 6.0	 1.035	 150.0	 1	 105.0	 50.0;
	692	 1.4	 0.35	 0.7	 0.0	 1.035	 1.9	 1	 1.54	 1.26;
	694	 0.7	 0.5	 1.0	 0.0	 1.035	 3.8	 1	 1.4	 0.0;
	700	 22.0	 10.0	 18.0	 2.0	 1.035	 37.5	 1	 35.0	 9.0;
	700	 14.5	 16.0	 30.0	 2.0	 1.035	 37.5	 1	 20.0	 9.0;
	701	 22.0	 10.0	 18.0	 2.0	 1.035	 37.5	 1	 35.0	 9.0;
	701	 22.0	 10.0	 18.0	 2.0	 1.035	 37.5	 1	 35.0	 9.0;
	701	 22.0	 10.0	 18.0	 2.0	 1.035	 37.5	 1	 35.0	 9.0;
	701	 63.5	 35.5	 65.0	 6.0	 1.035	 121.3	 1	 97.0	 30.0;
	702	 22.0	 10.0	 18.0	 2.0	 1.035	 37.5	 1	 35.0	 9.0;
	702	 19.5	 10.0	 18.0	 2.0	 1.035	 37.5	 1	 30.0	 9.0;
	702	 18.5	 8.0	 14.0	 2.0	 1.035	 31.5	 1	 28.0	 9.0;
	735	 4.5	 2.0	 4.0	 0.0	 1.035	 5.3	 1	 8.0	 1.0;
	735	 1.5	 1.0	 2.0	 0.0	 1.035	 2.0	 1	 2.0	 1.0;
	752	 4.0	 2.35	 4.5	 0.2	 1.035	 5.8	 1	 4.4	 3.6;
	766	 1.35	 0.0	 0.0	 0.0	 1.035	 5.8	 1	 2.7	 0.0;
	775	 2.45	 0.0	 0.0	 0.0	 1.035	 4.0	 1	 4.9	 0.0;
	798	 46.5	 15.0	 30.0	 0.0	 1.035	 65.0	 1	 93.0	 0.0;
	798	 17.95	 15.0	 30.0	 0.0	 1.035	 65.0	 1	 35.9	 0.0;
	801	 0.0	 0.0	 0.0	 0.0	 1.035	 12.4	 0	 2.5	 0.0;
	808	 3.0	 0.0	 0.0	 0.0	 1.035	 4.7	 1	 6.0	 0.0;
	809	 3.0	 0.0	 0.0	 0.0	 1.035	 5.8	 1	 6.0	 0.0;
	846	 177.5	 58.0	 149.0	 -33.0	 1.035	 235.0	 1	 225.0	 130.0;
	847	 167.5	 58.0	 149.0	 -33.0	 1.035	 235.0	 1	 225.0	 110.0;
	854	 1.25	 0.0	 0.0	 0.0	 1.035	 3.0	 1	 2.5	 0.0;
	860	 6.0	 0.0	 0.0	 0.0	 1.035	 12.4	 1	 12.0	 0.0;
	870	 118.0	 15.0	 30.0	 0.0	 1.035	 167.6	 1	 170.0	 66.0;
	870	 47.5	 15.0	 30.0	 0.0	 1.035	 71.6	 1	 61.0	 34.0;
	876	 10.5	 0.0	 0.0	 0.0	 1.035	 8.3	 1	 21.0	 0.0;
	890	 3.5	 0.0	 0.0	 0.0	 1.035	 5.6	 1	 7.0	 0.0;
	893	 0.0	 0.0	 0.0	 0.0	 1.035	 3.0	 0	 10.0	 0.0;
	908	 15.2	 0.0	 0.0	 0.0	 1.035	 3.0	 1	 30.4	 0.0;
	913	 1.0	 0.0	 0.0	 0.0	 1.035	 0.0	 1	 2.0	 0.0;
	918	 0.0	 0.0	 0.0	 0.0	 1.035	 1.0	 0	 1.9	 0.0;
	929	 0.0	 0.0	 0.0	 0.0	 1.035	 2.1	 0	 2.02	 1.34;
	934	 177.0	 47.0	 105.0	 -11.0	 1.035	 235.0	 1	 225.0	 129.0;
	936	 18.0	 15.0	 30.0	 0.0	 1.035	 36.8	 1	 36.0	 0.0;
	939	 0.0	 0.0	 0.0	 0.0	 1.035	 2.8	 0	 2.68	 1.78;
	959	 75.0	 15.0	 30.0	 0.0	 1.035	 100.8	 1	 101.0	 49.0;
	965	 0.0	 0.0	 0.0	 0.0	 1.035	 1.7	 0	 12.0	 0.0;
	980	 6.0	 15.0	 30.0	 0.0	 1.035	 9.5	 1	 12.0	 0.0;
	982	 0.0	 0.0	 0.0	 0.0	 1.035	 1.6	 0	 1.6	 0.91;
	984	 3.5	 0.0	 0.0	 0.0	 1.035	 5.9	 1	 6.0	 1.0;
	989	 4.15	 0.0	 0.0	 0.0	 1.035	 10.9	 1	 8.3	 0.0;
	993	 36.5	 11.5	 23.0	 0.0	 1.035	 52.0	 1	 68.0	 5.0;
	993	 0.0	 0.0	 23.0	 0.0	 1.035	 52.0	 0	 68.0	 5.0;
	993	 0.0	 0.0	 11.0	 0.0	 1.035	 24.5	 0	 31.0	 -32.0;
	993	 0.0	 0.0	 10.0	 0.0	 1.035	 24.5	 0	 31.0	 -32.0;
	1008	 0.0	 0.0	 10.0	 0.0	 1.035	 69.0	 0	 50.0	 0.0;
	1008	 108.5	 29.5	 74.0	 -15.0	 1.035	 57.6	 1	 125.0	 92.0;
	1009	 104.5	 29.5	 74.0	 -15.0	 1.035	 57.6	 1	 125.0	 84.0;
	1009	 0.0	 0.0	 10.0	 0.0	 1.035	 40.0	 0	 30.0	 0.0;
	1021	 1.25	 0.0	 0.0	 0.0	 1.035	 3.3	 1	 2.5	 0.0;
	1049	 2.79	 0.0	 0.0	 0.0	 1.035	 3.8	 1	 3.35	 2.23;
...
];

%% generator cost data
%	2	startup	shutdown	n	c(n-1)	...	c0
mpc.gencost = [
2	0.0	0.0	3	0.2	158.610000	0.000000;
2	0.0	0.0	3	0.2	158.610000	0.000000;
2	0.0	0.0	3	0.2	107.030000	0.000000;
2	0.0	0.0	3	0.2	107.030000	0.000000;
2	0.0	0.0	3	0.2	107.030000	0.000000;
2	0.0	0.0	3	0.2	107.030000	0.000000;
2	0.0	0.0	3	0.2	107.030000	0.000000;
2	0.0	0.0	3	0.2	107.030000	0.000000;
2	0.0	0.0	3	0.2	107.030000	0.000000;
2	0.0	0.0	3	0.2	107.030000	0.000000;
2	0.0	0.0	3	0.2	107.030000	0.000000;
2	0.0	0.0	3	0.2	107.030000	0.000000;
2	0.0	0.0	3	0.2	107.030000	0.000000;
2	0.0	0.0	3	0.2	143.520000	0.000000;
2	0.0	0.0	3	0.2	143.520000	0.000000;
2	0.0	0.0	3	0.2	143.520000	0.000000;
2	0.0	0.0	3	0.2	143.520000	0.000000;
2	0.0	0.0	3	0.2	143.520000	0.000000;
2	0.0	0.0	3	0.2	143.520000	0.000000;
2	0.0	0.0	3	0.2	143.520000	0.000000;
2	0.0	0.0	3	0.2	143.520000	0.000000;
2	0.0	0.0	3	0.2	148.160000	0.000000;
2	0.0	0.0	3	0.2	148.160000	0.000000;
2	0.0	0.0	3	0.2	148.160000	0.000000;
2	0.0	0.0	3	0.2	148.160000	0.000000;
2	0.0	0.0	3	0.2	148.160000	0.000000;
2	0.0	0.0	3	0.2	148.160000	0.000000;
2	0.0	0.0	3	0.2	148.160000	0.000000;
	2	 0.0	 0.0	 3	   0.000000	   0.000000	   0.000000;
2	0.0	0.0	3	0.2	134.040000	0.000000;
2	0.0	0.0	3	0.2	134.040000	0.000000;
2	0.0	0.0	3	0.2	134.040000	0.000000;
2	0.0	0.0	3	0.2	134.040000	0.000000;
2	0.0	0.0	3	0.2	134.040000	0.000000;
2	0.0	0.0	3	0.2	126.620000	0.000000;
2	0.0	0.0	3	0.2	126.620000	0.000000;
	2	 0.0	 0.0	 3	   0.000000	   0.000000	   0.000000;
	2	 0.0	 0.0	 3	   0.000000	   0.000000	   0.000000;
2	0.0	0.0	3	0.2	130.490000	0.000000;
2	0.0	0.0	3	0.2	130.490000	0.000000;
2	0.0	0.0	3	0.2	132.330000	0.000000;
2	0.0	0.0	3	0.2	132.330000	0.000000;
2	0.0	0.0	3	0.2	136.590000	0.000000;
2	0.0	0.0	3	0.2	136.590000	0.000000;
2	0.0	0.0	3	0.2	139.960000	0.000000;
2	0.0	0.0	3	0.2	128.210000	0.000000;
2	0.0	0.0	3	0.2	128.210000	0.000000;
2	0.0	0.0	3	0.2	128.210000	0.000000;
2	0.0	0.0	3	0.2	128.210000	0.000000;
2	0.0	0.0	3	0.2	128.210000	0.000000;
2	0.0	0.0	3	0.2	137.400000	0.000000;
2	0.0	0.0	3	0.2	137.400000	0.000000;
2	0.0	0.0	3	0.2	137.400000	0.000000;
2	0.0	0.0	3	0.2	137.400000	0.000000;
2	0.0	0.0	3	0.2	129.990000	0.000000;
2	0.0	0.0	3	0.2	129.990000	0.000000;
2	0.0	0.0	3	0.2	129.990000	0.000000;
2	0.0	0.0	3	0.2	135.600000	0.000000;
2	0.0	0.0	3	0.2	135.600000	0.000000;
2	0.0	0.0	3	0.2	135.600000	0.000000;
2	0.0	0.0	3	0.2	163.160000	0.000000;
2	0.0	0.0	3	0.2	163.160000	0.000000;
2	0.0	0.0	3	0.2	163.160000	0.000000;
2	0.0	0.0	3	0.2	163.160000	0.000000;
2	0.0	0.0	3	0.2	163.160000	0.000000;
2	0.0	0.0	3	0.2	163.160000	0.000000;
2	0.0	0.0	3	0.2	163.160000	0.000000;
2	0.0	0.0	3	0.2	139.010000	0.000000;
2	0.0	0.0	3	0.2	139.010000	0.000000;
2	0.0	0.0	3	0.2	139.010000	0.000000;
2	0.0	0.0	3	0.2	139.010000	0.000000;
2	0.0	0.0	3	0.2	139.010000	0.000000;
2	0.0	0.0	3	0.2	139.010000	0.000000;
2	0.0	0.0	3	0.2	139.010000	0.000000;
2	0.0	0.0	3	0.2	139.010000	0.000000;
2	0.0	0.0	3	0.2	125.480000	0.000000;
2	0.0	0.0	3	0.2	125.480000	0.000000;
2	0.0	0.0	3	0.2	125.480000	0.000000;
2	0.0	0.0	3	0.2	125.480000	0.000000;
2	0.0	0.0	3	0.2	125.480000	0.000000;
2	0.0	0.0	3	0.2	137.400000	0.000000;
2	0.0	0.0	3	0.2	137.400000	0.000000;
2	0.0	0.0	3	0.2	137.400000	0.000000;
2	0.0	0.0	3	0.2	137.400000	0.000000;
2	0.0	0.0	3	0.2	137.400000	0.000000;
	2	 0.0	 0.0	 3	   0.000000	   0.000000	   0.000000;
	2	 0.0	 0.0	 3	   0.000000	   0.000000	   0.000000;
	2	 0.0	 0.0	 3	   0.000000	   0.000000	   0.000000;
	2	 0.0	 0.0	 3	   0.000000	   0.000000	   0.000000;
	2	 0.0	 0.0	 3	   0.000000	   0.000000	   0.000000;
	2	 0.0	 0.0	 3	   0.000000	   0.000000	   0.000000;
	2	 0.0	 0.0	 3	   0.000000	   0.000000	   0.000000;
	2	 0.0	 0.0	 3	   0.000000	   0.000000	   0.000000;
	2	 0.0	 0.0	 3	   0.000000	   0.000000	   0.000000;
	2	 0.0	 0.0	 3	   0.000000	   0.000000	   0.000000;
	2	 0.0	 0.0	 3	   0.000000	   0.000000	   0.000000;
	2	 0.0	 0.0	 3	   0.000000	   0.000000	   0.000000;
	2	 0.0	 0.0	 3	   0.000000	   0.000000	   0.000000;
2	0.0	0.0	3	0.2	107.030000	0.000000;
	2	 0.0	 0.0	 3	   0.000000	   0.000000	   0.000000;
	2	 0.0	 0.0	 3	   0.000000	   0.000000	   0.000000;
	2	 0.0	 0.0	 3	   0.000000	   0.000000	   0.000000;
	2	 0.0	 0.0	 3	   0.000000	   0.000000	   0.000000;
	2	 0.0	 0.0	 3	   0.000000	   0.000000	   0.000000;
	2	 0.0	 0.0	 3	   0.000000	   0.000000	   0.000000;
	2	 0.0	 0.0	 3	   0.000000	   0.000000	   0.000000;
	2	 0.0	 0.0	 3	   0.000000	   0.000000	   0.000000;
	2	 0.0	 0.0	 3	   0.000000	   0.000000	   0.000000;
	2	 0.0	 0.0	 3	   0.000000	   0.000000	   0.000000;
	2	 0.0	 0.0	 3	   0.000000	   0.000000	   0.000000;
	2	 0.0	 0.0	 3	   0.000000	   0.000000	   0.000000;
	2	 0.0	 0.0	 3	   0.000000	   0.000000	   0.000000;
	2	 0.0	 0.0	 3	   0.000000	   0.000000	   0.000000;
	2	 0.0	 0.0	 3	   0.000000	   0.000000	   0.000000;
	2	 0.0	 0.0	 3	   0.000000	   0.000000	   0.000000;
	2	 0.0	 0.0	 3	   0.000000	   0.000000	   0.000000;
	2	 0.0	 0.0	 3	   0.000000	   0.000000	   0.000000;
	2	 0.0	 0.0	 3	   0.000000	   0.000000	   0.000000;
	2	 0.0	 0.0	 3	   0.000000	   0.000000	   0.000000;
	2	 0.0	 0.0	 3	   0.000000	   0.000000	   0.000000;
	2	 0.0	 0.0	 3	   0.000000	   0.000000	   0.000000;
	2	 0.0	 0.0	 3	   0.000000	   0.000000	   0.000000;
	2	 0.0	 0.0	 3	   0.000000	   0.000000	   0.000000;
2	0.0	0.0	3	0.2	158.610000	0.000000;
2	0.0	0.0	3	0.2	158.610000	0.000000;
2	0.0	0.0	3	0.2	158.610000	0.000000;
	2	 0.0	 0.0	 3	   0.000000	   0.000000	   0.000000;
	2	 0.0	 0.0	 3	   0.000000	   0.000000	   0.000000;
	2	 0.0	 0.0	 3	   0.000000	   0.000000	   0.000000;
	2	 0.0	 0.0	 3	   0.000000	   0.000000	   0.000000;
	2	 0.0	 0.0	 3	   0.000000	   0.000000	   0.000000;
	2	 0.0	 0.0	 3	   0.000000	   0.000000	   0.000000;
	2	 0.0	 0.0	 3	   0.000000	   0.000000	   0.000000;
	2	 0.0	 0.0	 3	   0.000000	   0.000000	   0.000000;
	2	 0.0	 0.0	 3	   0.000000	   0.000000	   0.000000;
	2	 0.0	 0.0	 3	   0.000000	   0.000000	   0.000000;
	2	 0.0	 0.0	 3	   0.000000	   0.000000	   0.000000;
	2	 0.0	 0.0	 3	   0.000000	   0.000000	   0.000000;
	2	 0.0	 0.0	 3	   0.000000	   0.000000	   0.000000;
	2	 0.0	 0.0	 3	   0.000000	   0.000000	   0.000000;
	2	 0.0	 0.0	 3	   0.000000	   0.000000	   0.000000;
	2	 0.0	 0.0	 3	   0.000000	   0.000000	   0.000000;
	2	 0.0	 0.0	 3	   0.000000	   0.000000	   0.000000;
	2	 0.0	 0.0	 3	   0.000000	   0.000000	   0.000000;
	2	 0.0	 0.0	 3	   0.000000	   0.000000	   0.000000;
	2	 0.0	 0.0	 3	   0.000000	   0.000000	   0.000000;
	2	 0.0	 0.0	 3	   0.000000	   0.000000	   0.000000;
	2	 0.0	 0.0	 3	   0.000000	   0.000000	   0.000000;
	2	 0.0	 0.0	 3	   0.000000	   0.000000	   0.000000;
	2	 0.0	 0.0	 3	   0.000000	   0.000000	   0.000000;
	2	 0.0	 0.0	 3	   0.000000	   0.000000	   0.000000;
	2	 0.0	 0.0	 3	   0.000000	   0.000000	   0.000000;
	2	 0.0	 0.0	 3	   0.000000	   0.000000	   0.000000;
	2	 0.0	 0.0	 3	   0.000000	   0.000000	   0.000000;
	2	 0.0	 0.0	 3	   0.000000	   0.000000	   0.000000;
	2	 0.0	 0.0	 3	   0.000000	   0.000000	   0.000000;
	2	 0.0	 0.0	 3	   0.000000	   0.000000	   0.000000;
	2	 0.0	 0.0	 3	   0.000000	   0.000000	   0.000000;
	2	 0.0	 0.0	 3	   0.000000	   0.000000	   0.000000;
	2	 0.0	 0.0	 3	   0.000000	   0.000000	   0.000000;
	2	 0.0	 0.0	 3	   0.000000	   0.000000	   0.000000;
	2	 0.0	 0.0	 3	   0.000000	   0.000000	   0.000000;
	2	 0.0	 0.0	 3	   0.000000	   0.000000	   0.000000;
	2	 0.0	 0.0	 3	   0.000000	   0.000000	   0.000000;
	2	 0.0	 0.0	 3	   0.000000	   0.000000	   0.000000;
	2	 0.0	 0.0	 3	   0.000000	   0.000000	   0.000000;
	2	 0.0	 0.0	 3	   0.000000	   0.000000	   0.000000;
	2	 0.0	 0.0	 3	   0.000000	   0.000000	   0.000000;
2	0.0	0.0	3	0.2	143.520000	0.000000;
2	0.0	0.0	3	0.2	143.520000	0.000000;
	2	 0.0	 0.0	 3	   0.000000	   0.000000	   0.000000;
	2	 0.0	 0.0	 3	   0.000000	   0.000000	   0.000000;
	2	 0.0	 0.0	 3	   0.000000	   0.000000	   0.000000;
	2	 0.0	 0.0	 3	   0.000000	   0.000000	   0.000000;
	2	 0.0	 0.0	 3	   0.000000	   0.000000	   0.000000;
	2	 0.0	 0.0	 3	   0.000000	   0.000000	   0.000000;
	2	 0.0	 0.0	 3	   0.000000	   0.000000	   0.000000;
	2	 0.0	 0.0	 3	   0.000000	   0.000000	   0.000000;
	2	 0.0	 0.0	 3	   0.000000	   0.000000	   0.000000;
	2	 0.0	 0.0	 3	   0.000000	   0.000000	   0.000000;
	2	 0.0	 0.0	 3	   0.000000	   0.000000	   0.000000;
2	0.0	0.0	3	0.2	148.160000	0.000000;
	2	 0.0	 0.0	 3	   0.000000	   0.000000	   0.000000;
	2	 0.0	 0.0	 3	   0.000000	   0.000000	   0.000000;
	2	 0.0	 0.0	 3	   0.000000	   0.000000	   0.000000;
	2	 0.0	 0.0	 3	   0.000000	   0.000000	   0.000000;
	2	 0.0	 0.0	 3	   0.000000	   0.000000	   0.000000;
	2	 0.0	 0.0	 3	   0.000000	   0.000000	   0.000000;
	2	 0.0	 0.0	 3	   0.000000	   0.000000	   0.000000;
	2	 0.0	 0.0	 3	   0.000000	   0.000000	   0.000000;
	2	 0.0	 0.0	 3	   0.000000	   0.000000	   0.000000;
	2	 0.0	 0.0	 3	   0.000000	   0.000000	   0.000000;
	2	 0.0	 0.0	 3	   0.000000	   0.000000	   0.000000;
	2	 0.0	 0.0	 3	   0.000000	   0.000000	   0.000000;
2	0.0	0.0	3	0.2	157.000000	0.000000;
2	0.0	0.0	3	0.2	157.000000	0.000000;
2	0.0	0.0	3	0.2	157.000000	0.000000;
2	0.0	0.0	3	0.2	157.000000	0.000000;
	2	 0.0	 0.0	 3	   0.000000	   0.000000	   0.000000;
	2	 0.0	 0.0	 3	   0.000000	   0.000000	   0.000000;
...
];

%% storage data
%	bus	energy	energy_rating	charge_rating	discharge_rating	thermal_rating	qmin	qmax	r	x	standby_loss	status
mpc.storage = [
	3008	0.0	0.0	1.00	905.6250	452.8125	326.0250	0.9	0.85	1000	-1000	1000	0.1	0.01	0	0	1;
	3012	0.0	0.0	1.00	884.2650	442.1325	318.3354	0.9	0.85	1000	-1000	1000	0.1	0.01	0	0	1;
	3006	0.0	0.0	1.00	533.0250	266.5125	191.8890	0.9	0.85	1000	-1000	1000	0.1	0.01	0	0	1;
	3007	0.0	0.0	1.00	369.4350	184.7175	132.9966	0.9	0.85	1000	-1000	1000	0.1	0.01	0	0	1;
	74	0.0	0.0	1.00	224.5650	112.2825	80.8434	0.9	0.85	1000	-1000	1000	0.1	0.01	0	0	1;
	2810	0.0	0.0	1.00	221.3700	110.6850	79.6932	0.9	0.85	1000	-1000	1000	0.1	0.01	0	0	1;
	1354	0.0	0.0	1.00	164.2800	82.1400	59.1408	0.9	0.85	1000	-1000	1000	0.1	0.01	0	0	1;
	2943	0.0	0.0	1.00	158.7750	79.3875	57.1590	0.9	0.85	1000	-1000	1000	0.1	0.01	0	0	1;
	2267	0.0	0.0	1.00	153.7350	76.8675	55.3446	0.9	0.85	1000	-1000	1000	0.1	0.01	0	0	1;
	457	0.0	0.0	1.00	141.2550	70.6275	50.8518	0.9	0.85	1000	-1000	1000	0.1	0.01	0	0	1;
	1470	0.0	0.0	1.00	135.8100	67.9050	48.8916	0.9	0.85	1000	-1000	1000	0.1	0.01	0	0	1;
	458	0.0	0.0	1.00	116.8500	58.4250	42.0660	0.9	0.85	1000	-1000	1000	0.1	0.01	0	0	1;
	126	0.0	0.0	1.00	107.3100	53.6550	38.6316	0.9	0.85	1000	-1000	1000	0.1	0.01	0	0	1;
	2665	0.0	0.0	1.00	98.3250	49.1625	35.3970	0.9	0.85	1000	-1000	1000	0.1	0.01	0	0	1;
	1056	0.0	0.0	1.00	98.0100	49.0050	35.2836	0.9	0.85	1000	-1000	1000	0.1	0.01	0	0	1;
	3004	0.0	0.0	1.00	97.5000	48.7500	35.1000	0.9	0.85	1000	-1000	1000	0.1	0.01	0	0	1;
	1357	0.0	0.0	1.00	94.9500	47.4750	34.1820	0.9	0.85	1000	-1000	1000	0.1	0.01	0	0	1;
	40	0.0	0.0	1.00	90.4350	45.2175	32.5566	0.9	0.85	1000	-1000	1000	0.1	0.01	0	0	1;
	41	0.0	0.0	1.00	90.4350	45.2175	32.5566	0.9	0.85	1000	-1000	1000	0.1	0.01	0	0	1;
	671	0.0	0.0	1.00	82.9500	41.4750	29.8620	0.9	0.85	1000	-1000	1000	0.1	0.01	0	0	1;
	38	0.0	0.0	1.00	81.8100	40.9050	29.4516	0.9	0.85	1000	-1000	1000	0.1	0.01	0	0	1;
	58	0.0	0.0	1.00	81.3900	40.6950	29.3004	0.9	0.85	1000	-1000	1000	0.1	0.01	0	0	1;
	670	0.0	0.0	1.00	79.9350	39.9675	28.7766	0.9	0.85	1000	-1000	1000	0.1	0.01	0	0	1;
	1408	0.0	0.0	1.00	79.5300	39.7650	28.6308	0.9	0.85	1000	-1000	1000	0.1	0.01	0	0	1;
	411	0.0	0.0	1.00	77.8800	38.9400	28.0368	0.9	0.85	1000	-1000	1000	0.1	0.01	0	0	1;
	2674	0.0	0.0	1.00	76.0200	38.0100	27.3672	0.9	0.85	1000	-1000	1000	0.1	0.01	0	0	1;
	2350	0.0	0.0	1.00	75.6000	37.8000	27.2160	0.9	0.85	1000	-1000	1000	0.1	0.01	0	0	1;
	3001	0.0	0.0	1.00	75.0000	37.5000	27.0000	0.9	0.85	1000	-1000	1000	0.1	0.01	0	0	1;
	3002	0.0	0.0	1.00	75.0000	37.5000	27.0000	0.9	0.85	1000	-1000	1000	0.1	0.01	0	0	1;
	383	0.0	0.0	1.00	74.1750	37.0875	26.7030	0.9	0.85	1000	-1000	1000	0.1	0.01	0	0	1;
	37	0.0	0.0	1.00	73.0200	36.5100	26.2872	0.9	0.85	1000	-1000	1000	0.1	0.01	0	0	1;
	692	0.0	0.0	1.00	72.6600	36.3300	26.1576	0.9	0.85	1000	-1000	1000	0.1	0.01	0	0	1;
	2336	0.0	0.0	1.00	72.6450	36.3225	26.1522	0.9	0.85	1000	-1000	1000	0.1	0.01	0	0	1;
	2515	0.0	0.0	1.00	72.2400	36.1200	26.0064	0.9	0.85	1000	-1000	1000	0.1	0.01	0	0	1;
	701	0.0	0.0	1.00	67.7850	33.8925	24.4026	0.9	0.85	1000	-1000	1000	0.1	0.01	0	0	1;
	455	0.0	0.0	1.00	67.6950	33.8475	24.3702	0.9	0.85	1000	-1000	1000	0.1	0.01	0	0	1;
	103	0.0	0.0	1.00	67.6650	33.8325	24.3594	0.9	0.85	1000	-1000	1000	0.1	0.01	0	0	1;
	2803	0.0	0.0	1.00	67.5900	33.7950	24.3324	0.9	0.85	1000	-1000	1000	0.1	0.01	0	0	1;
	1381	0.0	0.0	1.00	66.3150	33.1575	23.8734	0.9	0.85	1000	-1000	1000	0.1	0.01	0	0	1;
	1382	0.0	0.0	1.00	66.3150	33.1575	23.8734	0.9	0.85	1000	-1000	1000	0.1	0.01	0	0	1;
	323	0.0	0.0	1.00	65.9250	32.9625	23.7330	0.9	0.85	1000	-1000	1000	0.1	0.01	0	0	1;
	922	0.0	0.0	1.00	64.5450	32.2725	23.2362	0.9	0.85	1000	-1000	1000	0.1	0.01	0	0	1;
	927	0.0	0.0	1.00	64.5450	32.2725	23.2362	0.9	0.85	1000	-1000	1000	0.1	0.01	0	0	1;
	2377	0.0	0.0	1.00	63.4950	31.7475	22.8582	0.9	0.85	1000	-1000	1000	0.1	0.01	0	0	1;
	95	0.0	0.0	1.00	63.3000	31.6500	22.7880	0.9	0.85	1000	-1000	1000	0.1	0.01	0	0	1;
	2750	0.0	0.0	1.00	62.3250	31.1625	22.4370	0.9	0.85	1000	-1000	1000	0.1	0.01	0	0	1;
	145	0.0	0.0	1.00	61.5150	30.7575	22.1454	0.9	0.85	1000	-1000	1000	0.1	0.01	0	0	1;
	2984	0.0	0.0	1.00	61.3050	30.6525	22.0698	0.9	0.85	1000	-1000	1000	0.1	0.01	0	0	1;
	2337	0.0	0.0	1.00	61.1550	30.5775	22.0158	0.9	0.85	1000	-1000	1000	0.1	0.01	0	0	1;
	2150	0.0	0.0	1.00	60.7500	30.3750	21.8700	0.9	0.85	1000	-1000	1000	0.1	0.01	0	0	1;
	2356	0.0	0.0	1.00	60.0150	30.0075	21.6054	0.9	0.85	1000	-1000	1000	0.1	0.01	0	0	1;
	1570	0.0	0.0	1.00	59.5650	29.7825	21.4434	0.9	0.85	1000	-1000	1000	0.1	0.01	0	0	1;
	2582	0.0	0.0	1.00	59.3400	29.6700	21.3624	0.9	0.85	1000	-1000	1000	0.1	0.01	0	0	1;
	2172	0.0	0.0	1.00	58.5750	29.2875	21.0870	0.9	0.85	1000	-1000	1000	0.1	0.01	0	0	1;
	499	0.0	0.0	1.00	58.1700	29.0850	20.9412	0.9	0.85	1000	-1000	1000	0.1	0.01	0	0	1;
	334	0.0	0.0	1.00	57.6150	28.8075	20.7414	0.9	0.85	1000	-1000	1000	0.1	0.01	0	0	1;
	193	0.0	0.0	1.00	57.2700	28.6350	20.6172	0.9	0.85	1000	-1000	1000	0.1	0.01	0	0	1;
	2593	0.0	0.0	1.00	56.8200	28.4100	20.4552	0.9	0.85	1000	-1000	1000	0.1	0.01	0	0	1;
	837	0.0	0.0	1.00	56.4750	28.2375	20.3310	0.9	0.85	1000	-1000	1000	0.1	0.01	0	0	1;
	849	0.0	0.0	1.00	56.4750	28.2375	20.3310	0.9	0.85	1000	-1000	1000	0.1	0.01	0	0	1;
	630	0.0	0.0	1.00	56.0100	28.0050	20.1636	0.9	0.85	1000	-1000	1000	0.1	0.01	0	0	1;
	2094	0.0	0.0	1.00	55.6500	27.8250	20.0340	0.9	0.85	1000	-1000	1000	0.1	0.01	0	0	1;
	1409	0.0	0.0	1.00	55.3500	27.6750	19.9260	0.9	0.85	1000	-1000	1000	0.1	0.01	0	0	1;
	558	0.0	0.0	1.00	55.1250	27.5625	19.8450	0.9	0.85	1000	-1000	1000	0.1	0.01	0	0	1;
	1595	0.0	0.0	1.00	54.6900	27.3450	19.6884	0.9	0.85	1000	-1000	1000	0.1	0.01	0	0	1;
	2673	0.0	0.0	1.00	54.0450	27.0225	19.4562	0.9	0.85	1000	-1000	1000	0.1	0.01	0	0	1;
	2264	0.0	0.0	1.00	53.9550	26.9775	19.4238	0.9	0.85	1000	-1000	1000	0.1	0.01	0	0	1;
	2500	0.0	0.0	1.00	53.2950	26.6475	19.1862	0.9	0.85	1000	-1000	1000	0.1	0.01	0	0	1;
	800	0.0	0.0	1.00	53.2500	26.6250	19.1700	0.9	0.85	1000	-1000	1000	0.1	0.01	0	0	1;
	2985	0.0	0.0	1.00	52.8150	26.4075	19.0134	0.9	0.85	1000	-1000	1000	0.1	0.01	0	0	1;
	1188	0.0	0.0	1.00	52.2300	26.1150	18.8028	0.9	0.85	1000	-1000	1000	0.1	0.01	0	0	1;
	2592	0.0	0.0	1.00	51.5250	25.7625	18.5490	0.9	0.85	1000	-1000	1000	0.1	0.01	0	0	1;
	1227	0.0	0.0	1.00	51.2700	25.6350	18.4572	0.9	0.85	1000	-1000	1000	0.1	0.01	0	0	1;
	310	0.0	0.0	1.00	50.7600	25.3800	18.2736	0.9	0.85	1000	-1000	1000	0.1	0.01	0	0	1;
	1009	0.0	0.0	1.00	49.5450	24.7725	17.8362	0.9	0.85	1000	-1000	1000	0.1	0.01	0	0	1;
	2999	0.0	0.0	1.00	49.5000	24.7500	17.8200	0.9	0.85	1000	-1000	1000	0.1	0.01	0	0	1;
	2226	0.0	0.0	1.00	49.4700	24.7350	17.8092	0.9	0.85	1000	-1000	1000	0.1	0.01	0	0	1;
	387	0.0	0.0	1.00	48.7500	24.3750	17.5500	0.9	0.85	1000	-1000	1000	0.1	0.01	0	0	1;
	456	0.0	0.0	1.00	48.7500	24.3750	17.5500	0.9	0.85	1000	-1000	1000	0.1	0.01	0	0	1;
	2782	0.0	0.0	1.00	48.7350	24.3675	17.5446	0.9	0.85	1000	-1000	1000	0.1	0.01	0	0	1;
	2934	0.0	0.0	1.00	48.7350	24.3675	17.5446	0.9	0.85	1000	-1000	1000	0.1	0.01	0	0	1;
	1000	0.0	0.0	1.00	48.4050	24.2025	17.4258	0.9	0.85	1000	-1000	1000	0.1	0.01	0	0	1;
	2569	0.0	0.0	1.00	48.3000	24.1500	17.3880	0.9	0.85	1000	-1000	1000	0.1	0.01	0	0	1;
	98	0.0	0.0	1.00	48.2250	24.1125	17.3610	0.9	0.85	1000	-1000	1000	0.1	0.01	0	0	1;
	2293	0.0	0.0	1.00	47.5650	23.7825	17.1234	0.9	0.85	1000	-1000	1000	0.1	0.01	0	0	1;
	332	0.0	0.0	1.00	46.9200	23.4600	16.8912	0.9	0.85	1000	-1000	1000	0.1	0.01	0	0	1;
	2554	0.0	0.0	1.00	46.4400	23.2200	16.7184	0.9	0.85	1000	-1000	1000	0.1	0.01	0	0	1;
	2327	0.0	0.0	1.00	46.3800	23.1900	16.6968	0.9	0.85	1000	-1000	1000	0.1	0.01	0	0	1;
	665	0.0	0.0	1.00	46.1700	23.0850	16.6212	0.9	0.85	1000	-1000	1000	0.1	0.01	0	0	1;
	666	0.0	0.0	1.00	46.1700	23.0850	16.6212	0.9	0.85	1000	-1000	1000	0.1	0.01	0	0	1;
	2263	0.0	0.0	1.00	45.9000	22.9500	16.5240	0.9	0.85	1000	-1000	1000	0.1	0.01	0	0	1;
	384	0.0	0.0	1.00	45.6150	22.8075	16.4214	0.9	0.85	1000	-1000	1000	0.1	0.01	0	0	1;
	385	0.0	0.0	1.00	45.6150	22.8075	16.4214	0.9	0.85	1000	-1000	1000	0.1	0.01	0	0	1;
	2130	0.0	0.0	1.00	45.4050	22.7025	16.3458	0.9	0.85	1000	-1000	1000	0.1	0.01	0	0	1;
	2131	0.0	0.0	1.00	44.8050	22.4025	16.1298	0.9	0.85	1000	-1000	1000	0.1	0.01	0	0	1;
	1666	0.0	0.0	1.00	44.6400	22.3200	16.0704	0.9	0.85	1000	-1000	1000	0.1	0.01	0	0	1;
	2590	0.0	0.0	1.00	44.5950	22.2975	16.0542	0.9	0.85	1000	-1000	1000	0.1	0.01	0	0	1;
	2253	0.0	0.0	1.00	44.4000	22.2000	15.9840	0.9	0.85	1000	-1000	1000	0.1	0.01	0	0	1;
	2442	0.0	0.0	1.00	44.4000	22.2000	15.9840	0.9	0.85	1000	-1000	1000	0.1	0.01	0	0	1;
	115	0.0	0.0	1.00	44.0400	22.0200	15.8544	0.9	0.85	1000	-1000	1000	0.1	0.01	0	0	1;
	2753	0.0	0.0	1.00	44.0100	22.0050	15.8436	0.9	0.85	1000	-1000	1000	0.1	0.01	0	0	1;
	2987	0.0	0.0	1.00	44.0100	22.0050	15.8436	0.9	0.85	1000	-1000	1000	0.1	0.01	0	0	1;
	609	0.0	0.0	1.00	43.9050	21.9525	15.8058	0.9	0.85	1000	-1000	1000	0.1	0.01	0	0	1;
	610	0.0	0.0	1.00	43.9050	21.9525	15.8058	0.9	0.85	1000	-1000	1000	0.1	0.01	0	0	1;
	656	0.0	0.0	1.00	43.9050	21.9525	15.8058	0.9	0.85	1000	-1000	1000	0.1	0.01	0	0	1;
	657	0.0	0.0	1.00	43.9050	21.9525	15.8058	0.9	0.85	1000	-1000	1000	0.1	0.01	0	0	1;
	2291	0.0	0.0	1.00	43.8150	21.9075	15.7734	0.9	0.85	1000	-1000	1000	0.1	0.01	0	0	1;
	811	0.0	0.0	1.00	43.7250	21.8625	15.7410	0.9	0.85	1000	-1000	1000	0.1	0.01	0	0	1;
	75	0.0	0.0	1.00	43.7100	21.8550	15.7356	0.9	0.85	1000	-1000	1000	0.1	0.01	0	0	1;
	2155	0.0	0.0	1.00	43.1400	21.5700	15.5304	0.9	0.85	1000	-1000	1000	0.1	0.01	0	0	1;
	2501	0.0	0.0	1.00	42.9450	21.4725	15.4602	0.9	0.85	1000	-1000	1000	0.1	0.01	0	0	1;
	2300	0.0	0.0	1.00	42.7500	21.3750	15.3900	0.9	0.85	1000	-1000	1000	0.1	0.01	0	0	1;
	1471	0.0	0.0	1.00	42.6750	21.3375	15.3630	0.9	0.85	1000	-1000	1000	0.1	0.01	0	0	1;
	2946	0.0	0.0	1.00	42.4350	21.2175	15.2766	0.9	0.85	1000	-1000	1000	0.1	0.01	0	0	1;
	1962	0.0	0.0	1.00	42.2100	21.1050	15.1956	0.9	0.85	1000	-1000	1000	0.1	0.01	0	0	1;
	94	0.0	0.0	1.00	42.1950	21.0975	15.1902	0.9	0.85	1000	-1000	1000	0.1	0.01	0	0	1;
	146	0.0	0.0	1.00	42.1950	21.0975	15.1902	0.9	0.85	1000	-1000	1000	0.1	0.01	0	0	1;
	2938	0.0	0.0	1.00	41.6550	20.8275	14.9958	0.9	0.85	1000	-1000	1000	0.1	0.01	0	0	1;
	2192	0.0	0.0	1.00	41.5050	20.7525	14.9418	0.9	0.85	1000	-1000	1000	0.1	0.01	0	0	1;
	2615	0.0	0.0	1.00	41.4600	20.7300	14.9256	0.9	0.85	1000	-1000	1000	0.1	0.01	0	0	1;
	2485	0.0	0.0	1.00	41.1000	20.5500	14.7960	0.9	0.85	1000	-1000	1000	0.1	0.01	0	0	1;
	2162	0.0	0.0	1.00	40.4100	20.2050	14.5476	0.9	0.85	1000	-1000	1000	0.1	0.01	0	0	1;
	2620	0.0	0.0	1.00	40.2750	20.1375	14.4990	0.9	0.85	1000	-1000	1000	0.1	0.01	0	0	1;
	867	0.0	0.0	1.00	40.2150	20.1075	14.4774	0.9	0.85	1000	-1000	1000	0.1	0.01	0	0	1;
	680	0.0	0.0	1.00	40.1100	20.0550	14.4396	0.9	0.85	1000	-1000	1000	0.1	0.01	0	0	1;
	681	0.0	0.0	1.00	40.1100	20.0550	14.4396	0.9	0.85	1000	-1000	1000	0.1	0.01	0	0	1;
	2494	0.0	0.0	1.00	39.8700	19.9350	14.3532	0.9	0.85	1000	-1000	1000	0.1	0.01	0	0	1;
	2587	0.0	0.0	1.00	39.8700	19.9350	14.3532	0.9	0.85	1000	-1000	1000	0.1	0.01	0	0	1;
	1074	0.0	0.0	1.00	39.6450	19.8225	14.2722	0.9	0.85	1000	-1000	1000	0.1	0.01	0	0	1;
	321	0.0	0.0	1.00	39.5850	19.7925	14.2506	0.9	0.85	1000	-1000	1000	0.1	0.01	0	0	1;
	2676	0.0	0.0	1.00	39.4950	19.7475	14.2182	0.9	0.85	1000	-1000	1000	0.1	0.01	0	0	1;
	667	0.0	0.0	1.00	39.3600	19.6800	14.1696	0.9	0.85	1000	-1000	1000	0.1	0.01	0	0	1;
	668	0.0	0.0	1.00	39.3600	19.6800	14.1696	0.9	0.85	1000	-1000	1000	0.1	0.01	0	0	1;
	2864	0.0	0.0	1.00	39.3000	19.6500	14.1480	0.9	0.85	1000	-1000	1000	0.1	0.01	0	0	1;
	2965	0.0	0.0	1.00	39.3000	19.6500	14.1480	0.9	0.85	1000	-1000	1000	0.1	0.01	0	0	1;
	2967	0.0	0.0	1.00	39.3000	19.6500	14.1480	0.9	0.85	1000	-1000	1000	0.1	0.01	0	0	1;
	2437	0.0	0.0	1.00	39.2550	19.6275	14.1318	0.9	0.85	1000	-1000	1000	0.1	0.01	0	0	1;
	258	0.0	0.0	1.00	39.2400	19.6200	14.1264	0.9	0.85	1000	-1000	1000	0.1	0.01	0	0	1;
	2577	0.0	0.0	1.00	39.2400	19.6200	14.1264	0.9	0.85	1000	-1000	1000	0.1	0.01	0	0	1;
	57	0.0	0.0	1.00	39.1800	19.5900	14.1048	0.9	0.85	1000	-1000	1000	0.1	0.01	0	0	1;
	60	0.0	0.0	1.00	39.1800	19.5900	14.1048	0.9	0.85	1000	-1000	1000	0.1	0.01	0	0	1;
	61	0.0	0.0	1.00	39.1800	19.5900	14.1048	0.9	0.85	1000	-1000	1000	0.1	0.01	0	0	1;
	73	0.0	0.0	1.00	39.1800	19.5900	14.1048	0.9	0.85	1000	-1000	1000	0.1	0.01	0	0	1;
	180	0.0	0.0	1.00	39.1800	19.5900	14.1048	0.9	0.85	1000	-1000	1000	0.1	0.01	0	0	1;
	181	0.0	0.0	1.00	39.1800	19.5900	14.1048	0.9	0.85	1000	-1000	1000	0.1	0.01	0	0	1;
	182	0.0	0.0	1.00	39.1800	19.5900	14.1048	0.9	0.85	1000	-1000	1000	0.1	0.01	0	0	1;
	183	0.0	0.0	1.00	39.1800	19.5900	14.1048	0.9	0.85	1000	-1000	1000	0.1	0.01	0	0	1;
	1356	0.0	0.0	1.00	39.1800	19.5900	14.1048	0.9	0.85	1000	-1000	1000	0.1	0.01	0	0	1;
	401	0.0	0.0	1.00	39.0150	19.5075	14.0454	0.9	0.85	1000	-1000	1000	0.1	0.01	0	0	1;
	633	0.0	0.0	1.00	39.0150	19.5075	14.0454	0.9	0.85	1000	-1000	1000	0.1	0.01	0	0	1;
	2717	0.0	0.0	1.00	39.0150	19.5075	14.0454	0.9	0.85	1000	-1000	1000	0.1	0.01	0	0	1;
	860	0.0	0.0	1.00	38.7300	19.3650	13.9428	0.9	0.85	1000	-1000	1000	0.1	0.01	0	0	1;
	863	0.0	0.0	1.00	38.7300	19.3650	13.9428	0.9	0.85	1000	-1000	1000	0.1	0.01	0	0	1;
	382	0.0	0.0	1.00	38.7150	19.3575	13.9374	0.9	0.85	1000	-1000	1000	0.1	0.01	0	0	1;
	2710	0.0	0.0	1.00	38.5050	19.2525	13.8618	0.9	0.85	1000	-1000	1000	0.1	0.01	0	0	1;
	2245	0.0	0.0	1.00	38.4300	19.2150	13.8348	0.9	0.85	1000	-1000	1000	0.1	0.01	0	0	1;
	1215	0.0	0.0	1.00	38.1450	19.0725	13.7322	0.9	0.85	1000	-1000	1000	0.1	0.01	0	0	1;
	512	0.0	0.0	1.00	37.9350	18.9675	13.6566	0.9	0.85	1000	-1000	1000	0.1	0.01	0	0	1;
	629	0.0	0.0	1.00	37.8450	18.9225	13.6242	0.9	0.85	1000	-1000	1000	0.1	0.01	0	0	1;
	676	0.0	0.0	1.00	37.8450	18.9225	13.6242	0.9	0.85	1000	-1000	1000	0.1	0.01	0	0	1;
	677	0.0	0.0	1.00	37.8450	18.9225	13.6242	0.9	0.85	1000	-1000	1000	0.1	0.01	0	0	1;
	682	0.0	0.0	1.00	37.8450	18.9225	13.6242	0.9	0.85	1000	-1000	1000	0.1	0.01	0	0	1;
	683	0.0	0.0	1.00	37.8450	18.9225	13.6242	0.9	0.85	1000	-1000	1000	0.1	0.01	0	0	1;
	2542	0.0	0.0	1.00	37.8000	18.9000	13.6080	0.9	0.85	1000	-1000	1000	0.1	0.01	0	0	1;
	2788	0.0	0.0	1.00	37.7250	18.8625	13.5810	0.9	0.85	1000	-1000	1000	0.1	0.01	0	0	1;
	2540	0.0	0.0	1.00	37.6500	18.8250	13.5540	0.9	0.85	1000	-1000	1000	0.1	0.01	0	0	1;
	477	0.0	0.0	1.00	37.6050	18.8025	13.5378	0.9	0.85	1000	-1000	1000	0.1	0.01	0	0	1;
	2470	0.0	0.0	1.00	37.5450	18.7725	13.5162	0.9	0.85	1000	-1000	1000	0.1	0.01	0	0	1;
	3003	0.0	0.0	1.00	37.5000	18.7500	13.5000	0.9	0.85	1000	-1000	1000	0.1	0.01	0	0	1;
	2205	0.0	0.0	1.00	37.3950	18.6975	13.4622	0.9	0.85	1000	-1000	1000	0.1	0.01	0	0	1;
	2280	0.0	0.0	1.00	37.3950	18.6975	13.4622	0.9	0.85	1000	-1000	1000	0.1	0.01	0	0	1;
	1073	0.0	0.0	1.00	37.3650	18.6825	13.4514	0.9	0.85	1000	-1000	1000	0.1	0.01	0	0	1;
	2907	0.0	0.0	1.00	36.9450	18.4725	13.3002	0.9	0.85	1000	-1000	1000	0.1	0.01	0	0	1;
	2535	0.0	0.0	1.00	36.7200	18.3600	13.2192	0.9	0.85	1000	-1000	1000	0.1	0.01	0	0	1;
	280	0.0	0.0	1.00	36.5400	18.2700	13.1544	0.9	0.85	1000	-1000	1000	0.1	0.01	0	0	1;
	320	0.0	0.0	1.00	36.5400	18.2700	13.1544	0.9	0.85	1000	-1000	1000	0.1	0.01	0	0	1;
	367	0.0	0.0	1.00	36.5400	18.2700	13.1544	0.9	0.85	1000	-1000	1000	0.1	0.01	0	0	1;
	1347	0.0	0.0	1.00	36.4800	18.2400	13.1328	0.9	0.85	1000	-1000	1000	0.1	0.01	0	0	1;
	1214	0.0	0.0	1.00	36.3900	18.1950	13.1004	0.9	0.85	1000	-1000	1000	0.1	0.01	0	0	1;
	175	0.0	0.0	1.00	36.1650	18.0825	13.0194	0.9	0.85	1000	-1000	1000	0.1	0.01	0	0	1;
	2705	0.0	0.0	1.00	36.1500	18.0750	13.0140	0.9	0.85	1000	-1000	1000	0.1	0.01	0	0	1;
	2932	0.0	0.0	1.00	36.1500	18.0750	13.0140	0.9	0.85	1000	-1000	1000	0.1	0.01	0	0	1;
	700	0.0	0.0	1.00	36.1350	18.0675	13.0086	0.9	0.85	1000	-1000	1000	0.1	0.01	0	0	1;
	274	0.0	0.0	1.00	36.1050	18.0525	12.9978	0.9	0.85	1000	-1000	1000	0.1	0.01	0	0	1;
	355	0.0	0.0	1.00	35.8050	17.9025	12.8898	0.9	0.85	1000	-1000	1000	0.1	0.01	0	0	1;
	887	0.0	0.0	1.00	35.7300	17.8650	12.8628	0.9	0.85	1000	-1000	1000	0.1	0.01	0	0	1;
	775	0.0	0.0	1.00	35.7000	17.8500	12.8520	0.9	0.85	1000	-1000	1000	0.1	0.01	0	0	1;
	381	0.0	0.0	1.00	35.6700	17.8350	12.8412	0.9	0.85	1000	-1000	1000	0.1	0.01	0	0	1;
	905	0.0	0.0	1.00	35.5050	17.7525	12.7818	0.9	0.85	1000	-1000	1000	0.1	0.01	0	0	1;
	953	0.0	0.0	1.00	35.5050	17.7525	12.7818	0.9	0.85	1000	-1000	1000	0.1	0.01	0	0	1;
	2897	0.0	0.0	1.00	35.3700	17.6850	12.7332	0.9	0.85	1000	-1000	1000	0.1	0.01	0	0	1;
	2920	0.0	0.0	1.00	35.3700	17.6850	12.7332	0.9	0.85	1000	-1000	1000	0.1	0.01	0	0	1;
	2357	0.0	0.0	1.00	35.3400	17.6700	12.7224	0.9	0.85	1000	-1000	1000	0.1	0.01	0	0	1;
	2625	0.0	0.0	1.00	35.2650	17.6325	12.6954	0.9	0.85	1000	-1000	1000	0.1	0.01	0	0	1;
	2438	0.0	0.0	1.00	35.1450	17.5725	12.6522	0.9	0.85	1000	-1000	1000	0.1	0.01	0	0	1;
	574	0.0	0.0	1.00	35.0400	17.5200	12.6144	0.9	0.85	1000	-1000	1000	0.1	0.01	0	0	1;
	2241	0.0	0.0	1.00	34.9350	17.4675	12.5766	0.9	0.85	1000	-1000	1000	0.1	0.01	0	0	1;
	650	0.0	0.0	1.00	34.8150	17.4075	12.5334	0.9	0.85	1000	-1000	1000	0.1	0.01	0	0	1;
	651	0.0	0.0	1.00	34.8150	17.4075	12.5334	0.9	0.85	1000	-1000	1000	0.1	0.01	0	0	1;
	2762	0.0	0.0	1.00	34.5750	17.2875	12.4470	0.9	0.85	1000	-1000	1000	0.1	0.01	0	0	1;
...
];

%% branch data
%	fbus	tbus	r	x	b	rateA	rateB	rateC	ratio	angle	status	angmin	angmax
mpc.branch = [
	9	 11	 0.00064	 0.0305	 0.0	 400.0	 400.0	 400.0	 1.10224	 0.0	 1	 -30.0	 30.0;
	13	 12	 0.00069	 0.03946	 0.0	 250.0	 250.0	 250.0	 0.9999	 0.0	 1	 -30.0	 30.0;
	21	 19	 0.00088	 0.05709	 0.0	 330.0	 330.0	 330.0	 0.9999	 0.0	 1	 -30.0	 30.0;
	36	 35	 0.0007	 0.03652	 0.0	 250.0	 250.0	 250.0	 0.9999	 0.0	 1	 -30.0	 30.0;
	37	 40	 0.00036	 0.02519	 0.0	 500.0	 500.0	 500.0	 1.0686	 0.0	 1	 -30.0	 30.0;
	38	 41	 0.00036	 0.02519	 0.0	 500.0	 500.0	 500.0	 1.08671	 0.0	 1	 -30.0	 30.0;
	55	 56	 0.00034	 0.02097	 0.0	 500.0	 500.0	 500.0	 1.0755	 0.0	 1	 -30.0	 30.0;
	59	 61	 0.00034	 0.02097	 0.0	 500.0	 500.0	 500.0	 1.05955	 0.0	 1	 -30.0	 30.0;
	70	 72	 0.00081	 0.03	 0.0	 400.0	 400.0	 400.0	 1.0876	 0.0	 1	 -30.0	 30.0;
	107	 109	 0.00075	 0.02445	 -0.00832	 330.0	 330.0	 330.0	 1.06467	 0.0	 1	 -30.0	 30.0;
	108	 110	 0.0004	 0.0253	 0.0	 500.0	 500.0	 500.0	 1.07013	 0.0	 1	 -30.0	 30.0;
	144	 147	 0.00053	 0.02875	 -0.016	 400.0	 400.0	 400.0	 1.07702	 0.0	 1	 -30.0	 30.0;
	173	 174	 0.00064	 0.0305	 0.0	 400.0	 400.0	 400.0	 1.06172	 0.0	 1	 -30.0	 30.0;
	182	 183	 0.00023	 0.023	 0.0	 500.0	 500.0	 500.0	 1.07426	 0.0	 1	 -30.0	 30.0;
	181	 184	 0.00023	 0.023	 0.0	 500.0	 500.0	 500.0	 1.07426	 0.0	 1	 -30.0	 30.0;
	188	 187	 0.00032	 0.04392	 0.0	 330.0	 330.0	 330.0	 0.9999	 0.0	 1	 -30.0	 30.0;
	191	 193	 0.0003	 0.02732	 0.0	 500.0	 500.0	 500.0	 1.10871	 0.0	 1	 -30.0	 30.0;
	198	 200	 0.00035	 0.02375	 0.0	 500.0	 500.0	 500.0	 1.07313	 0.0	 1	 -30.0	 30.0;
	212	 213	 0.00051	 0.0275	 0.0	 400.0	 400.0	 400.0	 1.10394	 0.0	 1	 -30.0	 30.0;
	217	 215	 0.00084	 0.06858	 0.0	 250.0	 250.0	 250.0	 0.9999	 0.0	 1	 -30.0	 30.0;
	220	 222	 0.00033	 0.02711	 0.0	 500.0	 500.0	 500.0	 1.08613	 0.0	 1	 -30.0	 30.0;
	224	 222	 0.00032	 0.0464	 0.0	 330.0	 330.0	 330.0	 0.9999	 0.0	 1	 -30.0	 30.0;
	231	 229	 0.00113	 0.05647	 0.0	 330.0	 330.0	 330.0	 0.9999	 0.0	 1	 -30.0	 30.0;
	228	 230	 0.00075	 0.02469	 -0.008	 330.0	 330.0	 330.0	 1.04544	 0.0	 1	 -30.0	 30.0;
	3010	 183	 0.00029	 0.00317	 0.09184	 773	 773	 773	 0.0	 0.0	 1	 -30.0	 30.0;
	3010	 184	 0.0003	 0.00326	 0.09536	 771	 771	 771	 0.0	 0.0	 1	 -30.0	 30.0;
	244	 84	 0.01475	 0.08595	 0.13036	 315	 315	 315	 0.0	 0.0	 1	 -30.0	 30.0;
	3007	 92	 0.01244	 0.06959	 0.1181	 309	 309	 309	 0.0	 0.0	 1	 -30.0	 30.0;
	3007	 122	 0.01207	 0.06905	 0.11519	 312	 312	 312	 0.0	 0.0	 1	 -30.0	 30.0;
	146	 3008	 0.00168	 0.01604	 0.51488	 724	 724	 724	 0.0	 0.0	 1	 -30.0	 30.0;
	3011	 172	 0.0018	 0.01616	 0.0484	 387	 387	 387	 0.0	 0.0	 1	 -30.0	 30.0;
	3011	 173	 0.0018	 0.01616	 0.0484	 387	 387	 387	 0.0	 0.0	 1	 -30.0	 30.0;
	3012	 63	 0.00223	 0.02209	 0.69011	 737	 737	 737	 0.0	 0.0	 1	 -30.0	 30.0;
	3012	 64	 0.00223	 0.02209	 0.69011	 737	 737	 737	 0.0	 0.0	 1	 -30.0	 30.0;
	99	 3006	 0.00293	 0.03054	 0.95472	 755	 755	 755	 0.0	 0.0	 1	 -30.0	 30.0;
...